Circuit: * Z:\home\peter\repos\pwm-charge-controller\ltspice\pwm5.asc

WARNING: Node MOSFET is floating.

WARNING: Less than two connections to node NC_01.  This node is used by R4.
Direct Newton iteration for .op point succeeded.
Changing Tseed to 4.88281e-014
Changing Tseed to 4.88281e-016
Changing Tseed to 4.88281e-013
Changing Tseed to 4.88281e-017
Changing Tseed to 4.88281e-012

Date: Thu Jun 20 21:45:15 2019
Total elapsed time: 0.103 seconds.

tnom = 27
temp = 27
method = modified trap
totiter = 2185
traniter = 2142
tranpoints = 1041
accept = 1035
rejected = 1
matrix size = 48
fillins = 22
solver = Normal
Matrix Compiler1: 3.86 KB object code size  1.7/1.3/[1.0]
Matrix Compiler2: 4.12 KB object code size  1.2/1.5/[1.2]

