Circuit: * Z:\home\peter\repos\pwm-charge-controller\ltspice\pwm5.asc

Direct Newton iteration for .op point succeeded.
Heightened Def Con from 3.00045e-005 to 3.00056e-005
Heightened Def Con from 3.00056e-005 to 3.00076e-005
Heightened Def Con from 3.00079e-005 to 3.00089e-005
Heightened Def Con from 3.00131e-005 to 3.00151e-005
Heightened Def Con from 3.02172e-005 to 3.02174e-005
Heightened Def Con from 3.02183e-005 to 3.02186e-005
Heightened Def Con from 3.02188e-005 to 3.02189e-005
Heightened Def Con from 3.02189e-005 to 3.02201e-005
Heightened Def Con from 3.02203e-005 to 3.02223e-005
Heightened Def Con from 3.02375e-005 to 3.02395e-005
Heightened Def Con from 3.0943e-005 to 3.0943e-005
Heightened Def Con from 3.0943e-005 to 3.09441e-005
Heightened Def Con from 3.09442e-005 to 3.09462e-005
Heightened Def Con from 3.09522e-005 to 3.09523e-005
Heightened Def Con from 3.09523e-005 to 3.09543e-005
Heightened Def Con from 3.09841e-005 to 3.09861e-005
Heightened Def Con from 3.09861e-005 to 3.09871e-005
Heightened Def Con from 3.09966e-005 to 3.09977e-005
Heightened Def Con from 3.09977e-005 to 3.0998e-005
Heightened Def Con from 3.09987e-005 to 3.10007e-005
Heightened Def Con from 3.10308e-005 to 3.10308e-005
Heightened Def Con from 3.10308e-005 +to 3.10318e-005
Heightened Def Con from 3.12148e-005 to 3.12168e-005
Heightened Def Con from 3.13629e-005 to 3.13649e-005
Heightened Def Con from 3.13792e-005 to 3.13802e-005
Heightened Def Con from 3.13807e-005 to 3.13827e-005
Heightened Def Con from 3.13845e-005 to 3.13847e-005
Heightened Def Con from 3.13847e-005 to 3.13847e-005
Heightened Def Con from 3.13847e-005 to 3.13859e-005
Heightened Def Con from 3.13863e-005 to 3.13883e-005
Heightened Def Con from 3.13983e-005 to 3.13994e-005
Heightened Def Con from 3.13994e-005 to 3.13997e-005
Heightened Def Con from 3.13997e-005 to 3.14007e-005
Heightened Def Con from 3.14012e-005 to 3.14013e-005
Heightened Def Con from 3.14013e-005 to 3.14025e-005
Heightened Def Con from 3.14025e-005 to 3.14045e-005
Heightened Def Con from 3.14105e-005 to 3.14125e-005
Heightened Def Con from 3.1416e-005 to 3.1417e-005
Heightened Def Con from 3.1417e-005 to 3.1417e-005
Heightened Def Con from 3.1417e-005 to 3.14181e-005
Heightened Def Con from 3.14182e-005 to 3.14202e-005
Heightened Def Con from 3.14202e-005 to 3.14222e-005
Heightened Def Con from 3.14313e-005 to 3.14323e-005
Heightened Def Con from 3.14323e-005 to 3.14323e-005
Heightened Def Con from 3.14323e-005 to 3.14343e-005
Heightened Def Con from 3.14363e-005 to 3.14364e-005
Heightened Def Con from 3.14364e-005 to 3.14364e-005
Heightened Def Con from 3.14364e-005 to 3.14374e-005
Heightened Def Con from 3.14374e-005 to 3.14394e-005
Heightened Def Con from 3.14424e-005 to 3.14444e-005
Heightened Def Con from 3.17701e-005 to 3.17711e-005
Heightened Def Con from 3.17711e-005 to 3.17711e-005
Heightened Def Con from 3.17711e-005 +to 3.17721e-005
Heightened Def Con from 3.17721e-005 to 3.17741e-005
Heightened Def Con from 3.17802e-005 to 3.17814e-005
Heightened Def Con from 3.17814e-005 to 3.17824e-005
Heightened Def Con from 3.20031e-005 +++to 3.20071e-005
Heightened Def Con from 3.20071e-005 to 3.20071e-005
Heightened Def Con from 3.20071e-005 ++++to 3.20083e-005
Heightened Def Con from 3.20083e-005 to 3.20086e-005
Heightened Def Con from 3.20086e-005 +to 3.20097e-005
Heightened Def Con from 3.20097e-005 to 3.20097e-005
Heightened Def Con from 3.20097e-005 to 3.20098e-005
Heightened Def Con from 3.20098e-005 to 3.20098e-005
Heightened Def Con from 3.20098e-005 ++to 3.20108e-005
Heightened Def Con from 3.20108e-005 to 3.2011e-005
Heightened Def Con from 3.2011e-005 to 3.2012e-005
Heightened Def Con from 3.2012e-005 to 3.2012e-005
Heightened Def Con from 3.2012e-005 to 3.2012e-005
Heightened Def Con from 3.2012e-005 to 3.2012e-005
Heightened Def Con from 3.2012e-005 to 3.2012e-005
Heightened Def Con from 3.2012e-005 to 3.2014e-005
Heightened Def Con from 3.2014e-005 to 3.2014e-005
Heightened Def Con from 3.2014e-005 to 3.20161e-005
Heightened Def Con from 3.20161e-005 to 3.20173e-005
Heightened Def Con from 3.20173e-005 to 3.20173e-005
Heightened Def Con from 3.20173e-005 to 3.20173e-005
Heightened Def Con from 3.20173e-005 to 3.20173e-005
Heightened Def Con from 3.20173e-005 to 3.20183e-005
Heightened Def Con from 3.20183e-005 to 3.20213e-005
Heightened Def Con from 3.20213e-005 to 3.20214e-005
Heightened Def Con from 3.20214e-005 to 3.20214e-005
Heightened Def Con from 3.20214e-005 to 3.20216e-005
Heightened Def Con from 3.20216e-005 to 3.20216e-005
Heightened Def Con from 3.20216e-005 to 3.20216e-005
Heightened Def Con from 3.20216e-005 to 3.20236e-005
Heightened Def Con from 3.20236e-005 ++to 3.20237e-005
Heightened Def Con from 3.20237e-005 to 3.2024e-005
Heightened Def Con from 3.2024e-005 to 3.20243e-005
Heightened Def Con from 3.20247e-005 +to 3.20268e-005
Heightened Def Con from 3.20277e-005 to 3.20297e-005
Heightened Def Con from 3.20297e-005 to 3.20307e-005
Heightened Def Con from 3.20307e-005 to 3.20317e-005
Heightened Def Con from 3.20318e-005 to 3.20328e-005
Heightened Def Con from 3.20329e-005 to 3.2033e-005
Heightened Def Con from 3.2033e-005 +to 3.20361e-005
Heightened Def Con from 3.20443e-005 to 3.20445e-005
Heightened Def Con from 3.20454e-005 to 3.20455e-005
Heightened Def Con from 3.20455e-005 to 3.20456e-005
Heightened Def Con from 3.20456e-005 to 3.20458e-005
Heightened Def Con from 3.20458e-005 to 3.2046e-005
Heightened Def Con from 3.2046e-005 to 3.2047e-005
Heightened Def Con from 3.2047e-005 to 3.20471e-005
Heightened Def Con from 3.20471e-005 to 3.20473e-005
Heightened Def Con from 3.20473e-005 to 3.20473e-005
Heightened Def Con from 3.20473e-005 to 3.20473e-005
Heightened Def Con from 3.20473e-005 to 3.20474e-005
Heightened Def Con from 3.20474e-005 to 3.20474e-005
Heightened Def Con from 3.20474e-005 to 3.20486e-005
Heightened Def Con from 3.20486e-005 +to 3.20486e-005
Heightened Def Con from 3.20486e-005 to 3.20486e-005
Heightened Def Con from 3.20486e-005 to 3.20488e-005
Heightened Def Con from 3.20488e-005 to 3.20488e-005
Heightened Def Con from 3.20488e-005 to 3.20488e-005
Heightened Def Con from 3.20488e-005 to 3.20508e-005
Heightened Def Con from 3.20508e-005 to 3.20508e-005
Heightened Def Con from 3.20508e-005 to 3.20508e-005
Heightened Def Con from 3.20508e-005 to 3.20519e-005
Heightened Def Con from 3.20528e-005 to 3.20528e-005
Heightened Def Con from 3.20528e-005 to 3.20538e-005
Heightened Def Con from 3.20538e-005 to 3.20539e-005
Heightened Def Con from 3.20539e-005 +to 3.20549e-005
Heightened Def Con from 3.20549e-005 to 3.20549e-005
Heightened Def Con from 3.20549e-005 +to 3.2055e-005
Heightened Def Con from 3.2055e-005 to 3.2057e-005
Heightened Def Con from 3.2058e-005 to 3.20591e-005
Heightened Def Con from 3.20594e-005 to 3.20594e-005
Heightened Def Con from 3.20594e-005 +to 3.20614e-005
Heightened Def Con from 3.20618e-005 to 3.20618e-005
Heightened Def Con from 3.20618e-005 to 3.20618e-005
Heightened Def Con from 3.20618e-005 to 3.20618e-005
Heightened Def Con from 3.20618e-005 to 3.20618e-005
Heightened Def Con from 3.20618e-005 to 3.20619e-005
Heightened Def Con from 3.20619e-005 to 3.20619e-005
Heightened Def Con from 3.20619e-005 to 3.20639e-005
Heightened Def Con from 3.20661e-005 to 3.20681e-005
Heightened Def Con from 3.20694e-005 to 3.20704e-005
Heightened Def Con from 3.20704e-005 to 3.20724e-005
Heightened Def Con from 3.20738e-005 to 3.20758e-005
Heightened Def Con from 3.20882e-005 to 3.20892e-005
Heightened Def Con from 3.20893e-005 to 3.20913e-005
Heightened Def Con from 3.20937e-005 to 3.20957e-005
Heightened Def Con from 3.21002e-005 to 3.21003e-005
Heightened Def Con from 3.21003e-005 to 3.21004e-005
Heightened Def Con from 3.21004e-005 to 3.21004e-005
Heightened Def Con from 3.21004e-005 +to 3.21024e-005
Heightened Def Con from 3.21024e-005 to 3.21035e-005
Heightened Def Con from 3.21053e-005 to 3.21064e-005
Heightened Def Con from 3.21081e-005 to 3.21081e-005
Heightened Def Con from 3.21081e-005 to 3.21092e-005
Heightened Def Con from 3.21092e-005 to 3.21092e-005
Heightened Def Con from 3.21092e-005 to 3.21122e-005
Heightened Def Con from 3.21122e-005 to 3.21122e-005
Heightened Def Con from 3.21122e-005 +to 3.21133e-005
Heightened Def Con from 3.21133e-005 to 3.21133e-005
Heightened Def Con from 3.21133e-005 to 3.21133e-005
Heightened Def Con from 3.21133e-005 to 3.21133e-005
Heightened Def Con from 3.21133e-005 to 3.21143e-005
Heightened Def Con from 3.21143e-005 to 3.21163e-005
Heightened Def Con from 3.21165e-005 to 3.21185e-005
Heightened Def Con from 3.21194e-005 to 3.21194e-005
Heightened Def Con from 3.21194e-005 +to 3.21195e-005
Heightened Def Con from 3.21195e-005 to 3.21195e-005
Heightened Def Con from 3.21195e-005 to 3.21205e-005
Heightened Def Con from 3.21205e-005 to 3.21205e-005
Heightened Def Con from 3.21205e-005 +to 3.21235e-005
Heightened Def Con from 3.21255e-005 +to 3.21258e-005
Heightened Def Con from 3.21258e-005 to 3.21258e-005
Heightened Def Con from 3.21258e-005 to 3.21258e-005
Heightened Def Con from 3.21258e-005 to 3.21269e-005
Heightened Def Con from 3.21269e-005 to 3.21299e-005
Heightened Def Con from 3.21442e-005 to 3.21462e-005
Heightened Def Con from 3.21462e-005 to 3.21482e-005
Heightened Def Con from 3.21482e-005 to 3.21484e-005
Heightened Def Con from 3.21484e-005 to 3.21494e-005
Heightened Def Con from 3.21494e-005 to 3.21524e-005
Heightened Def Con from 3.21654e-005 to 3.21656e-005
Heightened Def Con from 3.21656e-005 to 3.21676e-005
Heightened Def Con from 3.21676e-005 to 3.21678e-005
Heightened Def Con from 3.2168e-005 to 3.2168e-005
Heightened Def Con from 3.2168e-005 to 3.2169e-005
Heightened Def Con from 3.2169e-005 to 3.2172e-005
Heightened Def Con from 3.21886e-005 to 3.21886e-005
Heightened Def Con from 3.21886e-005 to 3.21897e-005
Heightened Def Con from 3.21897e-005 to 3.21897e-005
Heightened Def Con from 3.21897e-005 ++to 3.21907e-005
Heightened Def Con from 3.21907e-005 to 3.21907e-005
Heightened Def Con from 3.21907e-005 to 3.21907e-005
Heightened Def Con from 3.21907e-005 to 3.21927e-005
Heightened Def Con from 3.21955e-005 to 3.21957e-005
Heightened Def Con from 3.21957e-005 to 3.21977e-005
Heightened Def Con from 3.22047e-005 to 3.22047e-005
Heightened Def Con from 3.22047e-005 to 3.22048e-005
Heightened Def Con from 3.22048e-005 to 3.22049e-005
Heightened Def Con from 3.22049e-005 to 3.22049e-005
Heightened Def Con from 3.22049e-005 to 3.22059e-005
Heightened Def Con from 3.22059e-005 to 3.22079e-005
Heightened Def Con from 3.22079e-005 to 3.2208e-005
Heightened Def Con from 3.2208e-005 to 3.22081e-005
Heightened Def Con from 3.22081e-005 +to 3.22082e-005
Heightened Def Con from 3.22088e-005 to 3.22088e-005
Heightened Def Con from 3.22088e-005 to 3.22088e-005
Heightened Def Con from 3.22088e-005 to 3.22108e-005
Heightened Def Con from 3.22108e-005 to 3.2211e-005
Heightened Def Con from 3.2211e-005 to 3.2211e-005
Heightened Def Con from 3.2211e-005 to 3.22111e-005
Heightened Def Con from 3.22111e-005 to 3.22112e-005
Heightened Def Con from 3.22112e-005 to 3.22124e-005
Heightened Def Con from 3.22142e-005 to 3.22142e-005
Heightened Def Con from 3.22142e-005 +to 3.22164e-005
Heightened Def Con from 3.22171e-005 to 3.22171e-005
Heightened Def Con from 3.22171e-005 to 3.22191e-005
Heightened Def Con from 3.22191e-005 +to 3.22211e-005
Heightened Def Con from 3.22211e-005 to 3.22211e-005
Heightened Def Con from 3.22211e-005 to 3.22221e-005
Heightened Def Con from 3.22221e-005 +to 3.22233e-005
Heightened Def Con from 3.22247e-005 to 3.22267e-005
Heightened Def Con from 3.22269e-005 to 3.22269e-005
Heightened Def Con from 3.22269e-005 to 3.22269e-005
Heightened Def Con from 3.22269e-005 to 3.22269e-005
Heightened Def Con from 3.22269e-005 to 3.22289e-005
Heightened Def Con from 3.22289e-005 to 3.223e-005
Heightened Def Con from 3.22303e-005 to 3.22323e-005
Heightened Def Con from 3.22323e-005 to 3.22323e-005
Heightened Def Con from 3.22323e-005 to 3.22334e-005
Heightened Def Con from 3.22334e-005 to 3.22346e-005
Heightened Def Con from 3.22346e-005 to 3.22346e-005
Heightened Def Con from 3.22346e-005 to 3.22346e-005
Heightened Def Con from 3.22346e-005 to 3.22366e-005
Heightened Def Con from 3.22402e-005 to 3.22422e-005
Heightened Def Con from 3.22481e-005 to 3.22501e-005
Heightened Def Con from 3.22517e-005 to 3.22517e-005
Heightened Def Con from 3.22517e-005 to 3.22528e-005
Heightened Def Con from 3.22528e-005 to 3.22528e-005
Heightened Def Con from 3.22528e-005 to 3.22539e-005
Heightened Def Con from 3.22539e-005 to 3.22559e-005
Heightened Def Con from 3.23441e-005 to 3.23443e-005
Heightened Def Con from 3.23443e-005 to 3.23454e-005
Heightened Def Con from 3.23454e-005 +to 3.23464e-005
Heightened Def Con from 3.23477e-005 to 3.23497e-005
Heightened Def Con from 3.2365e-005 +to 3.2366e-005
Heightened Def Con from 3.23661e-005 to 3.23681e-005
Heightened Def Con from 3.23769e-005 to 3.23779e-005
Heightened Def Con from 3.2378e-005 to 3.23791e-005
Heightened Def Con from 3.23809e-005 to 3.23819e-005
Heightened Def Con from 3.23819e-005 to 3.23819e-005
Heightened Def Con from 3.23819e-005 +to 3.23829e-005
Heightened Def Con from 3.23843e-005 to 3.23854e-005
Heightened Def Con from 3.23854e-005 +to 3.23865e-005
Heightened Def Con from 3.23867e-005 +to 3.23887e-005
Heightened Def Con from 3.23887e-005 to 3.23897e-005
Heightened Def Con from 3.23897e-005 to 3.239e-005
Heightened Def Con from 3.23907e-005 to 3.23919e-005
Heightened Def Con from 3.23919e-005 +to 3.23939e-005
Heightened Def Con from 3.23954e-005 to 3.23954e-005
Heightened Def Con from 3.23954e-005 to 3.23954e-005
Heightened Def Con from 3.23954e-005 to 3.23954e-005
Heightened Def Con from 3.23954e-005 to 3.23954e-005
Heightened Def Con from 3.23954e-005 to 3.23954e-005
Heightened Def Con from 3.23954e-005 to 3.23974e-005
Heightened Def Con from 3.23976e-005 to 3.23987e-005
Heightened Def Con from 3.23987e-005 to 3.23988e-005
Heightened Def Con from 3.23988e-005 to 3.23988e-005
Heightened Def Con from 3.23988e-005 to 3.23998e-005
Heightened Def Con from 3.23998e-005 to 3.24e-005
Heightened Def Con from 3.24002e-005 to 3.24002e-005
Heightened Def Con from 3.24002e-005 to 3.24022e-005
Heightened Def Con from 3.24024e-005 +to 3.24034e-005
Heightened Def Con from 3.24034e-005 to 3.24044e-005
Heightened Def Con from 3.24044e-005 to 3.24044e-005
Heightened Def Con from 3.24044e-005 to 3.24056e-005
Heightened Def Con from 3.24056e-005 to 3.24056e-005
Heightened Def Con from 3.24056e-005 ++to 3.24066e-005
Heightened Def Con from 3.24066e-005 to 3.24076e-005
Heightened Def Con from 3.24076e-005 +to 3.24096e-005
Heightened Def Con from 3.24096e-005 to 3.24106e-005
Heightened Def Con from 3.24106e-005 to 3.24106e-005
Heightened Def Con from 3.24106e-005 to 3.24108e-005
Heightened Def Con from 3.24108e-005 +to 3.24108e-005
Heightened Def Con from 3.24108e-005 to 3.2411e-005
Heightened Def Con from 3.2411e-005 to 3.2412e-005
Heightened Def Con from 3.2412e-005 to 3.24131e-005
Heightened Def Con from 3.24131e-005 to 3.24141e-005
Heightened Def Con from 3.24141e-005 to 3.24141e-005
Heightened Def Con from 3.24141e-005 to 3.24141e-005
Heightened Def Con from 3.24141e-005 to 3.24143e-005
Heightened Def Con from 3.24144e-005 to 3.24155e-005
Heightened Def Con from 3.24155e-005 +to 3.24165e-005
Heightened Def Con from 3.24165e-005 +to 3.24167e-005
Heightened Def Con from 3.24167e-005 to 3.24168e-005
Heightened Def Con from 3.24169e-005 to 3.24169e-005
Heightened Def Con from 3.24169e-005 +to 3.24179e-005
Heightened Def Con from 3.24181e-005 to 3.24181e-005
Heightened Def Con from 3.24181e-005 to 3.24201e-005
Heightened Def Con from 3.24201e-005 to 3.24211e-005
Heightened Def Con from 3.24211e-005 to 3.24221e-005
Heightened Def Con from 3.24221e-005 +to 3.24221e-005
Heightened Def Con from 3.24221e-005 ++to 3.24233e-005
Heightened Def Con from 3.24233e-005 to 3.24235e-005
Heightened Def Con from 3.24235e-005 to 3.24235e-005
Heightened Def Con from 3.24235e-005 to 3.24255e-005
Heightened Def Con from 3.24256e-005 to 3.24256e-005
Heightened Def Con from 3.24256e-005 to 3.24268e-005
Heightened Def Con from 3.24285e-005 to 3.24296e-005
Heightened Def Con from 3.24299e-005 to 3.24299e-005
Heightened Def Con from 3.24299e-005 to 3.24299e-005
Heightened Def Con from 3.24299e-005 to 3.24302e-005
Heightened Def Con from 3.24321e-005 to 3.24321e-005
Heightened Def Con from 3.24321e-005 to 3.24322e-005
Heightened Def Con from 3.24322e-005 to 3.24323e-005
Heightened Def Con from 3.24323e-005 to 3.24343e-005
Heightened Def Con from 3.24377e-005 to 3.24388e-005
Heightened Def Con from 3.24388e-005 to 3.24391e-005
Heightened Def Con from 3.24391e-005 to 3.24392e-005
Heightened Def Con from 3.24392e-005 to 3.24412e-005
Heightened Def Con from 3.24432e-005 to 3.24432e-005
Heightened Def Con from 3.24432e-005 to 3.24433e-005
Heightened Def Con from 3.24433e-005 to 3.24433e-005
Heightened Def Con from 3.24433e-005 to 3.24433e-005
Heightened Def Con from 3.24433e-005 to 3.24435e-005
Heightened Def Con from 3.24438e-005 to 3.24438e-005
Heightened Def Con from 3.24438e-005 to 3.24458e-005
Heightened Def Con from 3.24519e-005 to 3.24519e-005
Heightened Def Con from 3.24519e-005 to 3.24519e-005
Heightened Def Con from 3.24519e-005 to 3.24529e-005
Heightened Def Con from 3.24529e-005 to 3.24529e-005
Heightened Def Con from 3.24529e-005 to 3.24539e-005
Heightened Def Con from 3.24539e-005 to 3.24542e-005
Heightened Def Con from 3.24542e-005 to 3.24543e-005
Heightened Def Con from 3.24543e-005 to 3.24543e-005
Heightened Def Con from 3.24543e-005 to 3.24543e-005
Heightened Def Con from 3.24543e-005 to 3.24543e-005
Heightened Def Con from 3.24543e-005 +to 3.24553e-005
Heightened Def Con from 3.24645e-005 to 3.24665e-005
Heightened Def Con from 3.24736e-005 to 3.24746e-005
Heightened Def Con from 3.24746e-005 to 3.24748e-005
Heightened Def Con from 3.24748e-005 +to 3.24758e-005
Heightened Def Con from 3.24758e-005 to 3.24769e-005
Heightened Def Con from 3.24774e-005 to 3.24775e-005
Heightened Def Con from 3.24776e-005 to 3.24776e-005
Heightened Def Con from 3.24776e-005 +to 3.24786e-005
Heightened Def Con from 3.24786e-005 to 3.24787e-005
Heightened Def Con from 3.2479e-005 to 3.2481e-005
Heightened Def Con from 3.24845e-005 to 3.24856e-005
Heightened Def Con from 3.24864e-005 to 3.24884e-005
Heightened Def Con from 3.24886e-005 to 3.24896e-005
Heightened Def Con from 3.24896e-005 to 3.24897e-005
Heightened Def Con from 3.24897e-005 to 3.24897e-005
Heightened Def Con from 3.24897e-005 +to 3.24898e-005
Heightened Def Con from 3.24898e-005 to 3.24899e-005
Heightened Def Con from 3.24899e-005 to 3.24899e-005
Heightened Def Con from 3.24899e-005 to 3.24919e-005
Heightened Def Con from 3.24936e-005 to 3.24938e-005
Heightened Def Con from 3.24938e-005 to 3.24949e-005
Heightened Def Con from 3.24949e-005 to 3.24959e-005
Heightened Def Con from 3.24959e-005 to 3.2497e-005
Heightened Def Con from 3.2497e-005 to 3.2498e-005
Heightened Def Con from 3.2498e-005 to 3.2498e-005
Heightened Def Con from 3.2498e-005 to 3.2498e-005
Heightened Def Con from 3.2498e-005 to 3.24992e-005
Heightened Def Con from 3.24992e-005 to 3.25002e-005
Heightened Def Con from 3.25002e-005 to 3.25003e-005
Heightened Def Con from 3.25003e-005 to 3.25003e-005
Heightened Def Con from 3.25003e-005 to 3.25013e-005
Heightened Def Con from 3.25013e-005 to 3.25014e-005
Heightened Def Con from 3.25014e-005 to 3.25014e-005
Heightened Def Con from 3.25014e-005 to 3.25034e-005
Heightened Def Con from 3.25035e-005 to 3.25045e-005
Heightened Def Con from 3.25045e-005 to 3.25046e-005
Heightened Def Con from 3.25046e-005 to 3.25048e-005
Heightened Def Con from 3.25051e-005 to 3.25071e-005
Heightened Def Con from 3.25096e-005 to 3.25107e-005
Heightened Def Con from 3.25107e-005 to 3.25107e-005
Heightened Def Con from 3.25107e-005 to 3.25117e-005
Heightened Def Con from 3.25117e-005 to 3.25117e-005
Heightened Def Con from 3.25117e-005 to 3.25117e-005
Heightened Def Con from 3.25117e-005 to 3.25128e-005
Heightened Def Con from 3.25129e-005 to 3.25129e-005
Heightened Def Con from 3.25129e-005 to 3.25131e-005
Heightened Def Con from 3.25131e-005 to 3.25141e-005
Heightened Def Con from 3.25141e-005 to 3.25141e-005
Heightened Def Con from 3.25141e-005 to 3.25151e-005
Heightened Def Con from 3.25151e-005 to 3.25154e-005
Heightened Def Con from 3.25154e-005 to 3.25164e-005
Heightened Def Con from 3.25164e-005 to 3.25174e-005
Heightened Def Con from 3.25174e-005 to 3.25174e-005
Heightened Def Con from 3.25174e-005 to 3.25184e-005
Heightened Def Con from 3.25184e-005 to 3.25184e-005
Heightened Def Con from 3.25184e-005 to 3.25184e-005
Heightened Def Con from 3.25184e-005 to 3.25184e-005
Heightened Def Con from 3.25184e-005 to 3.25184e-005
Heightened Def Con from 3.25184e-005 to 3.25186e-005
Heightened Def Con from 3.25186e-005 to 3.25187e-005
Heightened Def Con from 3.25187e-005 to 3.25207e-005
Heightened Def Con from 3.25208e-005 ++to 3.25228e-005
Heightened Def Con from 3.25353e-005 to 3.25354e-005
Heightened Def Con from 3.25354e-005 to 3.25365e-005
Heightened Def Con from 3.25365e-005 to 3.25375e-005
Heightened Def Con from 3.25375e-005 to 3.25395e-005
Heightened Def Con from 3.25415e-005 to 3.25418e-005
Heightened Def Con from 3.25418e-005 to 3.25418e-005
Heightened Def Con from 3.25418e-005 to 3.25419e-005
Heightened Def Con from 3.25419e-005 to 3.25419e-005
Heightened Def Con from 3.25419e-005 to 3.25421e-005
Heightened Def Con from 3.25421e-005 to 3.25441e-005
Heightened Def Con from 3.25461e-005 to 3.25461e-005
Heightened Def Con from 3.25461e-005 to 3.25461e-005
Heightened Def Con from 3.25461e-005 to 3.25461e-005
Heightened Def Con from 3.25461e-005 to 3.25473e-005
Heightened Def Con from 3.25473e-005 to 3.25483e-005
Heightened Def Con from 3.25483e-005 to 3.25483e-005
Heightened Def Con from 3.25483e-005 to 3.25493e-005
Heightened Def Con from 3.25493e-005 to 3.25503e-005
Heightened Def Con from 3.25503e-005 to 3.25513e-005
Heightened Def Con from 3.25513e-005 to 3.25533e-005
Heightened Def Con from 3.25533e-005 to 3.25533e-005
Heightened Def Con from 3.25533e-005 to 3.25543e-005
Heightened Def Con from 3.25543e-005 to 3.25543e-005
Heightened Def Con from 3.25543e-005 to 3.25543e-005
Heightened Def Con from 3.25543e-005 +to 3.25545e-005
Heightened Def Con from 3.25547e-005 to 3.25547e-005
Heightened Def Con from 3.25547e-005 to 3.25547e-005
Heightened Def Con from 3.25547e-005 to 3.25567e-005
Heightened Def Con from 3.25587e-005 to 3.25587e-005
Heightened Def Con from 3.25587e-005 to 3.25587e-005
Heightened Def Con from 3.25587e-005 to 3.25598e-005
Heightened Def Con from 3.25598e-005 to 3.25609e-005
Heightened Def Con from 3.25609e-005 to 3.2562e-005
Heightened Def Con from 3.2562e-005 to 3.2564e-005
Heightened Def Con from 3.25643e-005 to 3.25643e-005
Heightened Def Con from 3.25643e-005 to 3.25653e-005
Heightened Def Con from 3.25653e-005 to 3.25663e-005
Heightened Def Con from 3.25663e-005 to 3.25663e-005
Heightened Def Con from 3.25663e-005 to 3.25663e-005
Heightened Def Con from 3.25663e-005 +to 3.25663e-005
Heightened Def Con from 3.25663e-005 to 3.25673e-005
Heightened Def Con from 3.25673e-005 to 3.25693e-005
Heightened Def Con from 3.25693e-005 to 3.25703e-005
Heightened Def Con from 3.25703e-005 to 3.25703e-005
Heightened Def Con from 3.25703e-005 to 3.25703e-005
Heightened Def Con from 3.25703e-005 to 3.25703e-005
Heightened Def Con from 3.25703e-005 to 3.25703e-005
Heightened Def Con from 3.25703e-005 to 3.25703e-005
Heightened Def Con from 3.25703e-005 to 3.25723e-005
Heightened Def Con from 3.25761e-005 +to 3.25764e-005
Heightened Def Con from 3.25766e-005 to 3.25767e-005
Heightened Def Con from 3.25767e-005 to 3.25767e-005
Heightened Def Con from 3.25767e-005 to 3.25767e-005
Heightened Def Con from 3.25767e-005 to 3.25767e-005
Heightened Def Con from 3.25767e-005 to 3.25767e-005
Heightened Def Con from 3.25767e-005 +to 3.25767e-005
Heightened Def Con from 3.25767e-005 to 3.25787e-005
Heightened Def Con from 3.25787e-005 +to 3.25787e-005
Heightened Def Con from 3.25787e-005 ++to 3.25797e-005
Heightened Def Con from 3.258e-005 to 3.258e-005
Heightened Def Con from 3.258e-005 to 3.258e-005
Heightened Def Con from 3.258e-005 to 3.258e-005
Heightened Def Con from 3.258e-005 to 3.2581e-005
Heightened Def Con from 3.2581e-005 to 3.2583e-005
Heightened Def Con from 3.259e-005 to 3.2591e-005
Heightened Def Con from 3.2591e-005 to 3.2591e-005
Heightened Def Con from 3.2591e-005 to 3.2591e-005
Heightened Def Con from 3.2591e-005 to 3.2591e-005
Heightened Def Con from 3.2591e-005 to 3.2593e-005
Heightened Def Con from 3.25968e-005 to 3.25968e-005
Heightened Def Con from 3.25968e-005 to 3.25988e-005
Heightened Def Con from 3.25992e-005 to 3.26002e-005
Heightened Def Con from 3.26002e-005 +to 3.26012e-005
Heightened Def Con from 3.26059e-005 to 3.2607e-005
Heightened Def Con from 3.26077e-005 to 3.26077e-005
Heightened Def Con from 3.26077e-005 to 3.26097e-005
Heightened Def Con from 3.26102e-005 to 3.26113e-005
Heightened Def Con from 3.26115e-005 to 3.26115e-005
Heightened Def Con from 3.26115e-005 to 3.26115e-005
Heightened Def Con from 3.26115e-005 to 3.26115e-005
Heightened Def Con from 3.26115e-005 to 3.26115e-005
Heightened Def Con from 3.26115e-005 to 3.26115e-005
Heightened Def Con from 3.26115e-005 to 3.26115e-005
Heightened Def Con from 3.26115e-005 to 3.26116e-005
Heightened Def Con from 3.26116e-005 to 3.26136e-005
Heightened Def Con from 3.26136e-005 to 3.26156e-005
Heightened Def Con from 3.26176e-005 to 3.26176e-005
Heightened Def Con from 3.26176e-005 to 3.26177e-005
Heightened Def Con from 3.26177e-005 to 3.26188e-005
Heightened Def Con from 3.26188e-005 to 3.26208e-005
Heightened Def Con from 3.26208e-005 to 3.2622e-005
Heightened Def Con from 3.26221e-005 to 3.26221e-005
Heightened Def Con from 3.26221e-005 +to 3.26221e-005
Heightened Def Con from 3.26221e-005 +to 3.26231e-005
Heightened Def Con from 3.26333e-005 to 3.26333e-005
Heightened Def Con from 3.26333e-005 +to 3.26333e-005
Heightened Def Con from 3.26333e-005 to 3.26333e-005
Heightened Def Con from 3.26333e-005 to 3.26333e-005
Heightened Def Con from 3.26333e-005 to 3.26333e-005
Heightened Def Con from 3.26333e-005 +to 3.26343e-005
Heightened Def Con from 3.26343e-005 to 3.26353e-005
Heightened Def Con from 3.26353e-005 to 3.26354e-005
Heightened Def Con from 3.26354e-005 to 3.26354e-005
Heightened Def Con from 3.26354e-005 to 3.26354e-005
Heightened Def Con from 3.26354e-005 to 3.26356e-005
Heightened Def Con from 3.26356e-005 to 3.26356e-005
Heightened Def Con from 3.26356e-005 to 3.26367e-005
Heightened Def Con from 3.26367e-005 to 3.26368e-005
Heightened Def Con from 3.26368e-005 to 3.26368e-005
Heightened Def Con from 3.26368e-005 to 3.26368e-005
Heightened Def Con from 3.26368e-005 to 3.2637e-005
Heightened Def Con from 3.26388e-005 to 3.26398e-005
Heightened Def Con from 3.26398e-005 to 3.26399e-005
Heightened Def Con from 3.26399e-005 to 3.26399e-005
Heightened Def Con from 3.26399e-005 +to 3.26409e-005
Heightened Def Con from 3.26466e-005 to 3.26486e-005
Heightened Def Con from 3.26511e-005 to 3.26511e-005
Heightened Def Con from 3.26511e-005 to 3.26511e-005
Heightened Def Con from 3.26511e-005 to 3.26511e-005
Heightened Def Con from 3.26511e-005 to 3.26511e-005
Heightened Def Con from 3.26511e-005 to 3.26511e-005
Heightened Def Con from 3.26511e-005 to 3.26511e-005
Heightened Def Con from 3.26511e-005 to 3.26512e-005
Heightened Def Con from 3.26512e-005 to 3.26512e-005
Heightened Def Con from 3.26512e-005 to 3.26512e-005
Heightened Def Con from 3.26512e-005 ++to 3.26522e-005
Heightened Def Con from 3.26522e-005 to 3.26522e-005
Heightened Def Con from 3.26522e-005 to 3.26522e-005
Heightened Def Con from 3.26522e-005 to 3.26522e-005
Heightened Def Con from 3.26522e-005 to 3.26524e-005
Heightened Def Con from 3.26524e-005 to 3.26544e-005
Heightened Def Con from 3.26564e-005 to 3.26575e-005
Heightened Def Con from 3.26575e-005 to 3.26576e-005
Heightened Def Con from 3.26576e-005 to 3.26586e-005
Heightened Def Con from 3.26586e-005 to 3.26596e-005
Heightened Def Con from 3.26596e-005 to 3.26616e-005
Heightened Def Con from 3.26687e-005 to 3.26687e-005
Heightened Def Con from 3.26687e-005 to 3.26688e-005
Heightened Def Con from 3.26688e-005 to 3.26688e-005
Heightened Def Con from 3.26688e-005 to 3.26688e-005
Heightened Def Con from 3.26688e-005 +to 3.26689e-005
Heightened Def Con from 3.26697e-005 to 3.26707e-005
Heightened Def Con from 3.2671e-005 to 3.26712e-005
Heightened Def Con from 3.26712e-005 to 3.26713e-005
Heightened Def Con from 3.26713e-005 to 3.26715e-005
Heightened Def Con from 3.26715e-005 to 3.26735e-005
Heightened Def Con from 3.26738e-005 to 3.26748e-005
Heightened Def Con from 3.26748e-005 to 3.26748e-005
Heightened Def Con from 3.26748e-005 to 3.2675e-005
Heightened Def Con from 3.26753e-005 to 3.26754e-005
Heightened Def Con from 3.26754e-005 to 3.26764e-005
Heightened Def Con from 3.26764e-005 to 3.26764e-005
Heightened Def Con from 3.26764e-005 to 3.26764e-005
Heightened Def Con from 3.26764e-005 to 3.26764e-005
Heightened Def Con from 3.26764e-005 +to 3.26775e-005
Heightened Def Con from 3.26775e-005 to 3.26775e-005
Heightened Def Con from 3.26775e-005 +to 3.26777e-005
Heightened Def Con from 3.26777e-005 to 3.26787e-005
Heightened Def Con from 3.26787e-005 to 3.26798e-005
Heightened Def Con from 3.26799e-005 to 3.26809e-005
Heightened Def Con from 3.26809e-005 to 3.26809e-005
Heightened Def Con from 3.26809e-005 to 3.2681e-005
Heightened Def Con from 3.2681e-005 ++to 3.26811e-005
Heightened Def Con from 3.26811e-005 to 3.26821e-005
Heightened Def Con from 3.26821e-005 to 3.26822e-005
Heightened Def Con from 3.26822e-005 to 3.26832e-005
Heightened Def Con from 3.26832e-005 +to 3.26842e-005
Heightened Def Con from 3.26845e-005 to 3.26845e-005
Heightened Def Con from 3.26845e-005 +to 3.26845e-005
Heightened Def Con from 3.26845e-005 to 3.26855e-005
Heightened Def Con from 3.26855e-005 to 3.26875e-005
Heightened Def Con from 3.27015e-005 to 3.27035e-005
Heightened Def Con from 3.27037e-005 to 3.27057e-005
Heightened Def Con from 3.27057e-005 to 3.27067e-005
Heightened Def Con from 3.27067e-005 +to 3.27067e-005
Heightened Def Con from 3.27067e-005 to 3.2707e-005
Heightened Def Con from 3.27073e-005 to 3.27073e-005
Heightened Def Con from 3.27073e-005 to 3.27093e-005
Heightened Def Con from 3.2717e-005 to 3.2718e-005
Heightened Def Con from 3.2724e-005 to 3.2725e-005
Heightened Def Con from 3.2725e-005 +to 3.2725e-005
Heightened Def Con from 3.2725e-005 to 3.2726e-005
Heightened Def Con from 3.2726e-005 to 3.27262e-005
Heightened Def Con from 3.27262e-005 to 3.27282e-005
Heightened Def Con from 3.27283e-005 to 3.27284e-005
Heightened Def Con from 3.27284e-005 to 3.27304e-005
Heightened Def Con from 3.27306e-005 to 3.27326e-005
Heightened Def Con from 3.27327e-005 to 3.27327e-005
Heightened Def Con from 3.27327e-005 to 3.27347e-005
Heightened Def Con from 3.27347e-005 to 3.27347e-005
Heightened Def Con from 3.27347e-005 to 3.27358e-005
Heightened Def Con from 3.27361e-005 to 3.27371e-005
Heightened Def Con from 3.27371e-005 +to 3.27371e-005
Heightened Def Con from 3.27376e-005 to 3.27376e-005
Heightened Def Con from 3.27376e-005 +to 3.27379e-005
Heightened Def Con from 3.27386e-005 to 3.27389e-005
Heightened Def Con from 3.27389e-005 to 3.274e-005
Heightened Def Con from 3.274e-005 to 3.2741e-005
Heightened Def Con from 3.2741e-005 to 3.27422e-005
Heightened Def Con from 3.27422e-005 +to 3.27422e-005
Heightened Def Con from 3.27422e-005 to 3.27432e-005
Heightened Def Con from 3.27432e-005 to 3.27432e-005
Heightened Def Con from 3.27432e-005 to 3.27432e-005
Heightened Def Con from 3.27432e-005 to 3.27432e-005
Heightened Def Con from 3.27432e-005 +to 3.27432e-005
Heightened Def Con from 3.27432e-005 to 3.27433e-005
Heightened Def Con from 3.27433e-005 to 3.27435e-005
Heightened Def Con from 3.27435e-005 +to 3.27435e-005
Heightened Def Con from 3.27435e-005 to 3.27436e-005
Heightened Def Con from 3.27436e-005 to 3.27456e-005
Heightened Def Con from 3.27604e-005 to 3.27604e-005
Heightened Def Con from 3.27604e-005 +to 3.27614e-005
Heightened Def Con from 3.27615e-005 to 3.27635e-005
Heightened Def Con from 3.27642e-005 ++to 3.27652e-005
Heightened Def Con from 3.27652e-005 to 3.27652e-005
Heightened Def Con from 3.27652e-005 to 3.27653e-005
Heightened Def Con from 3.27653e-005 to 3.27664e-005
Heightened Def Con from 3.27664e-005 to 3.27664e-005
Heightened Def Con from 3.27664e-005 to 3.27675e-005
Heightened Def Con from 3.27675e-005 to 3.27675e-005
Heightened Def Con from 3.27675e-005 +to 3.27685e-005
Heightened Def Con from 3.27686e-005 to 3.27686e-005
Heightened Def Con from 3.27686e-005 to 3.27696e-005
Heightened Def Con from 3.27696e-005 to 3.27706e-005
Heightened Def Con from 3.27706e-005 to 3.27706e-005
Heightened Def Con from 3.27706e-005 to 3.27707e-005
Heightened Def Con from 3.27707e-005 to 3.27727e-005
Heightened Def Con from 3.27727e-005 +to 3.27737e-005
Heightened Def Con from 3.27737e-005 +to 3.27737e-005
Heightened Def Con from 3.27737e-005 to 3.27749e-005
Heightened Def Con from 3.27749e-005 +to 3.2775e-005
Heightened Def Con from 3.2775e-005 to 3.2775e-005
Heightened Def Con from 3.2775e-005 to 3.2775e-005
Heightened Def Con from 3.2775e-005 to 3.2777e-005
Heightened Def Con from 3.27771e-005 to 3.27791e-005
Heightened Def Con from 3.27791e-005 +to 3.27801e-005
Heightened Def Con from 3.27801e-005 +to 3.27802e-005
Heightened Def Con from 3.27802e-005 to 3.27813e-005
Heightened Def Con from 3.27813e-005 to 3.27823e-005
Heightened Def Con from 3.27823e-005 to 3.27825e-005
Heightened Def Con from 3.27825e-005 ++to 3.27825e-005
Heightened Def Con from 3.27825e-005 to 3.27826e-005
Heightened Def Con from 3.27826e-005 +++to 3.27836e-005
Heightened Def Con from 3.27836e-005 +to 3.27836e-005
Heightened Def Con from 3.27836e-005 to 3.27836e-005
Heightened Def Con from 3.27836e-005 to 3.27837e-005
Heightened Def Con from 3.27837e-005 to 3.27847e-005
Heightened Def Con from 3.27847e-005 to 3.27847e-005
Heightened Def Con from 3.27847e-005 to 3.27847e-005
Heightened Def Con from 3.27847e-005 to 3.27847e-005
Heightened Def Con from 3.27847e-005 +to 3.27847e-005
Heightened Def Con from 3.27847e-005 to 3.27847e-005
Heightened Def Con from 3.27847e-005 to 3.27847e-005
Heightened Def Con from 3.27847e-005 to 3.27847e-005
Heightened Def Con from 3.27847e-005 to 3.27848e-005
Heightened Def Con from 3.27848e-005 to 3.27848e-005
Heightened Def Con from 3.27848e-005 to 3.27858e-005
Heightened Def Con from 3.27858e-005 to 3.27868e-005
Heightened Def Con from 3.27868e-005 +to 3.27879e-005
Heightened Def Con from 3.27879e-005 to 3.27879e-005
Heightened Def Con from 3.27879e-005 +to 3.27889e-005
Heightened Def Con from 3.27896e-005 to 3.27896e-005
Heightened Def Con from 3.27896e-005 to 3.27896e-005
Heightened Def Con from 3.27896e-005 +to 3.27898e-005
Heightened Def Con from 3.27898e-005 to 3.27898e-005
Heightened Def Con from 3.27898e-005 to 3.27909e-005
Heightened Def Con from 3.27912e-005 to 3.27922e-005
Heightened Def Con from 3.27922e-005 to 3.27942e-005
Heightened Def Con from 3.27969e-005 to 3.27969e-005
Heightened Def Con from 3.27969e-005 to 3.27969e-005
Heightened Def Con from 3.27969e-005 to 3.27989e-005
Heightened Def Con from 3.28024e-005 to 3.28026e-005
Heightened Def Con from 3.28026e-005 to 3.28036e-005
Heightened Def Con from 3.28036e-005 to 3.28056e-005
Heightened Def Con from 3.28056e-005 to 3.28057e-005
Heightened Def Con from 3.28058e-005 +to 3.28069e-005
Heightened Def Con from 3.28069e-005 to 3.28089e-005
Heightened Def Con from 3.28229e-005 to 3.28239e-005
Heightened Def Con from 3.28239e-005 to 3.28239e-005
Heightened Def Con from 3.28239e-005 to 3.28249e-005
Heightened Def Con from 3.28249e-005 +to 3.28251e-005
Heightened Def Con from 3.28251e-005 to 3.28261e-005
Heightened Def Con from 3.28261e-005 +to 3.28271e-005
Heightened Def Con from 3.28271e-005 +to 3.28272e-005
Heightened Def Con from 3.28272e-005 to 3.28272e-005
Heightened Def Con from 3.28272e-005 to 3.28272e-005
Heightened Def Con from 3.28272e-005 +to 3.28282e-005
Heightened Def Con from 3.28282e-005 to 3.28282e-005
Heightened Def Con from 3.28282e-005 to 3.28302e-005
Heightened Def Con from 3.28302e-005 to 3.28302e-005
Heightened Def Con from 3.28302e-005 to 3.28302e-005
Heightened Def Con from 3.28302e-005 to 3.28302e-005
Heightened Def Con from 3.28302e-005 +to 3.28303e-005
Heightened Def Con from 3.28303e-005 to 3.28313e-005
Heightened Def Con from 3.28313e-005 +to 3.28314e-005
Heightened Def Con from 3.28314e-005 to 3.28315e-005
Heightened Def Con from 3.28315e-005 to 3.28315e-005
Heightened Def Con from 3.28315e-005 to 3.28315e-005
Heightened Def Con from 3.28315e-005 to 3.28315e-005
Heightened Def Con from 3.28315e-005 to 3.28325e-005
Heightened Def Con from 3.28325e-005 to 3.28345e-005
Heightened Def Con from 3.28345e-005 to 3.28357e-005
Heightened Def Con from 3.28361e-005 to 3.28363e-005
Heightened Def Con from 3.28363e-005 +to 3.28364e-005
Heightened Def Con from 3.28364e-005 +to 3.28375e-005
Heightened Def Con from 3.28388e-005 to 3.28399e-005
Heightened Def Con from 3.28399e-005 to 3.284e-005
Heightened Def Con from 3.284e-005 to 3.2842e-005
Heightened Def Con from 3.2842e-005 to 3.28421e-005
Heightened Def Con from 3.28424e-005 to 3.28424e-005
Heightened Def Con from 3.28424e-005 to 3.28425e-005
Heightened Def Con from 3.28425e-005 to 3.28426e-005
Heightened Def Con from 3.28426e-005 +to 3.28426e-005
Heightened Def Con from 3.28426e-005 +to 3.28437e-005
Heightened Def Con from 3.28437e-005 to 3.28447e-005
Heightened Def Con from 3.2845e-005 +to 3.28461e-005
Heightened Def Con from 3.28464e-005 to 3.28464e-005
Heightened Def Con from 3.28464e-005 to 3.28466e-005
Heightened Def Con from 3.28466e-005 to 3.28477e-005
Heightened Def Con from 3.28477e-005 to 3.28497e-005
Heightened Def Con from 3.28497e-005 to 3.28499e-005
Heightened Def Con from 3.28499e-005 to 3.285e-005
Heightened Def Con from 3.285e-005 to 3.285e-005
Heightened Def Con from 3.285e-005 to 3.28502e-005
Heightened Def Con from 3.28502e-005 to 3.28512e-005
Heightened Def Con from 3.28512e-005 +to 3.28513e-005
Heightened Def Con from 3.28538e-005 to 3.28538e-005
Heightened Def Con from 3.28538e-005 +to 3.2855e-005
Heightened Def Con from 3.2855e-005 to 3.28551e-005
Heightened Def Con from 3.28553e-005 to 3.28553e-005
Heightened Def Con from 3.28553e-005 to 3.28553e-005
Heightened Def Con from 3.28553e-005 to 3.28565e-005
Heightened Def Con from 3.28565e-005 to 3.28575e-005
Heightened Def Con from 3.28575e-005 to 3.28577e-005
Heightened Def Con from 3.2858e-005 to 3.2858e-005
Heightened Def Con from 3.2858e-005 to 3.28581e-005
Heightened Def Con from 3.28581e-005 to 3.28581e-005
Heightened Def Con from 3.28581e-005 to 3.28581e-005
Heightened Def Con from 3.28581e-005 to 3.28591e-005
Heightened Def Con from 3.28592e-005 to 3.28592e-005
Heightened Def Con from 3.28592e-005 +to 3.28612e-005
Heightened Def Con from 3.28632e-005 to 3.28642e-005
Heightened Def Con from 3.28643e-005 to 3.28643e-005
Heightened Def Con from 3.28643e-005 to 3.28643e-005
Heightened Def Con from 3.28643e-005 to 3.28644e-005
Heightened Def Con from 3.28644e-005 to 3.28654e-005
Heightened Def Con from 3.28654e-005 +to 3.28674e-005
Heightened Def Con from 3.28674e-005 to 3.28684e-005
Heightened Def Con from 3.28684e-005 to 3.28684e-005
Heightened Def Con from 3.28684e-005 to 3.28686e-005
Heightened Def Con from 3.28686e-005 to 3.28706e-005
Heightened Def Con from 3.28732e-005 +to 3.28734e-005
Heightened Def Con from 3.28737e-005 to 3.28737e-005
Heightened Def Con from 3.28737e-005 to 3.28739e-005
Heightened Def Con from 3.28742e-005 to 3.28762e-005
Heightened Def Con from 3.28762e-005 to 3.28762e-005
Heightened Def Con from 3.28762e-005 to 3.28763e-005
Heightened Def Con from 3.28763e-005 to 3.28764e-005
Heightened Def Con from 3.28771e-005 to 3.28781e-005
Heightened Def Con from 3.28781e-005 +to 3.28791e-005
Heightened Def Con from 3.28809e-005 to 3.28829e-005
Heightened Def Con from 3.28829e-005 to 3.2883e-005
Heightened Def Con from 3.2883e-005 +to 3.2884e-005
Heightened Def Con from 3.2886e-005 to 3.2888e-005
Heightened Def Con from 3.28898e-005 to 3.28898e-005
Heightened Def Con from 3.28898e-005 to 3.28898e-005
Heightened Def Con from 3.28898e-005 to 3.28898e-005
Heightened Def Con from 3.28898e-005 to 3.28898e-005
Heightened Def Con from 3.28898e-005 to 3.28898e-005
Heightened Def Con from 3.28898e-005 to 3.28918e-005
Heightened Def Con from 3.28939e-005 to 3.28939e-005
Heightened Def Con from 3.28939e-005 to 3.28942e-005
Heightened Def Con from 3.2895e-005 to 3.28962e-005
Heightened Def Con from 3.28962e-005 to 3.28963e-005
Heightened Def Con from 3.28963e-005 to 3.28963e-005
Heightened Def Con from 3.28963e-005 to 3.28973e-005
Heightened Def Con from 3.28973e-005 to 3.28984e-005
Heightened Def Con from 3.28992e-005 to 3.28992e-005
Heightened Def Con from 3.28993e-005 +to 3.28994e-005
Heightened Def Con from 3.28994e-005 to 3.28995e-005
Heightened Def Con from 3.28995e-005 +to 3.28996e-005
Heightened Def Con from 3.28999e-005 +to 3.29009e-005
Heightened Def Con from 3.29009e-005 to 3.29019e-005
Heightened Def Con from 3.29019e-005 to 3.29029e-005
Heightened Def Con from 3.29029e-005 to 3.29039e-005
Heightened Def Con from 3.29039e-005 +to 3.2904e-005
Heightened Def Con from 3.2904e-005 +to 3.2904e-005
Heightened Def Con from 3.2904e-005 to 3.2904e-005
Heightened Def Con from 3.2904e-005 to 3.29043e-005
Heightened Def Con from 3.29046e-005 to 3.29046e-005
Heightened Def Con from 3.29046e-005 to 3.29046e-005
Heightened Def Con from 3.29046e-005 to 3.29046e-005
Heightened Def Con from 3.29046e-005 to 3.29066e-005
Heightened Def Con from 3.29069e-005 to 3.29089e-005
Heightened Def Con from 3.29089e-005 to 3.29089e-005
Heightened Def Con from 3.29089e-005 +to 3.291e-005
Heightened Def Con from 3.29111e-005 to 3.29111e-005
Heightened Def Con from 3.29111e-005 to 3.29111e-005
Heightened Def Con from 3.29111e-005 ++to 3.29121e-005
Heightened Def Con from 3.29121e-005 to 3.29141e-005
Heightened Def Con from 3.29166e-005 to 3.29166e-005
Heightened Def Con from 3.29166e-005 to 3.29166e-005
Heightened Def Con from 3.29166e-005 to 3.29176e-005
Heightened Def Con from 3.29176e-005 +++to 3.29177e-005
Heightened Def Con from 3.29177e-005 to 3.29177e-005
Heightened Def Con from 3.29177e-005 +to 3.29178e-005
Heightened Def Con from 3.29178e-005 to 3.29188e-005
Heightened Def Con from 3.29188e-005 to 3.29188e-005
Heightened Def Con from 3.29188e-005 ++to 3.29198e-005
Heightened Def Con from 3.29198e-005 +to 3.29218e-005
Heightened Def Con from 3.29218e-005 +to 3.29228e-005
Heightened Def Con from 3.29228e-005 ++to 3.29248e-005
Heightened Def Con from 3.29249e-005 to 3.29252e-005
Heightened Def Con from 3.29252e-005 to 3.29262e-005
Heightened Def Con from 3.29262e-005 to 3.29262e-005
Heightened Def Con from 3.29262e-005 to 3.29273e-005
Heightened Def Con from 3.29275e-005 to 3.29278e-005
Heightened Def Con from 3.29278e-005 to 3.29278e-005
Heightened Def Con from 3.29278e-005 to 3.29279e-005
Heightened Def Con from 3.29279e-005 +++++to 3.29299e-005
Heightened Def Con from 3.29301e-005 +to 3.29303e-005
Heightened Def Con from 3.29305e-005 to 3.29306e-005
Heightened Def Con from 3.29306e-005 to 3.29306e-005
Heightened Def Con from 3.29306e-005 to 3.29316e-005
Heightened Def Con from 3.29316e-005 +++to 3.29317e-005
Heightened Def Con from 3.29317e-005 to 3.29328e-005
Heightened Def Con from 3.29328e-005 to 3.29348e-005
Heightened Def Con from 3.29348e-005 +to 3.29358e-005
Heightened Def Con from 3.2936e-005 to 3.2938e-005
Heightened Def Con from 3.29385e-005 to 3.29385e-005
Heightened Def Con from 3.29385e-005 to 3.29387e-005
Heightened Def Con from 3.29387e-005 to 3.29387e-005
Heightened Def Con from 3.29387e-005 to 3.29407e-005
Heightened Def Con from 3.2941e-005 to 3.2941e-005
Heightened Def Con from 3.2941e-005 +to 3.29421e-005
Heightened Def Con from 3.29424e-005 +to 3.29425e-005
Heightened Def Con from 3.29425e-005 +to 3.29425e-005
Heightened Def Con from 3.29425e-005 to 3.29425e-005
Heightened Def Con from 3.29425e-005 to 3.29425e-005
Heightened Def Con from 3.29425e-005 to 3.29425e-005
Heightened Def Con from 3.29425e-005 +to 3.29437e-005
Heightened Def Con from 3.29437e-005 +to 3.29447e-005
Heightened Def Con from 3.29449e-005 +to 3.29459e-005
Heightened Def Con from 3.29735e-005 to 3.29746e-005
Heightened Def Con from 3.29746e-005 to 3.29766e-005
Heightened Def Con from 3.29786e-005 +to 3.29797e-005
Heightened Def Con from 3.29805e-005 to 3.29815e-005
Heightened Def Con from 3.29835e-005 to 3.29836e-005
Heightened Def Con from 3.29836e-005 to 3.29846e-005
Heightened Def Con from 3.29848e-005 to 3.29848e-005
Heightened Def Con from 3.29848e-005 +to 3.29858e-005
Heightened Def Con from 3.29858e-005 +to 3.2986e-005
Heightened Def Con from 3.2986e-005 ++to 3.29863e-005
Heightened Def Con from 3.29863e-005 +to 3.29883e-005
Heightened Def Con from 3.32345e-005 ++to 3.32355e-005
Heightened Def Con from 3.3238e-005 to 3.32382e-005
Heightened Def Con from 3.32382e-005 ++to 3.32383e-005
Heightened Def Con from 3.32383e-005 to 3.32393e-005
Heightened Def Con from 3.32839e-005 ++to 3.32849e-005
Heightened Def Con from 3.32849e-005 +to 3.32859e-005
Heightened Def Con from 3.32859e-005 to 3.32859e-005
Heightened Def Con from 3.32859e-005 to 3.32869e-005
Heightened Def Con from 3.32869e-005 +++to 3.32879e-005
Heightened Def Con from 3.32949e-005 to 3.32969e-005
Heightened Def Con from 3.32969e-005 +to 3.32979e-005
Heightened Def Con from 3.32979e-005 to 3.32981e-005
Heightened Def Con from 3.33001e-005 +to 3.33011e-005
Heightened Def Con from 3.33019e-005 +to 3.3302e-005
Heightened Def Con from 3.3302e-005 ++to 3.3304e-005
Heightened Def Con from 3.33061e-005 to 3.33081e-005
Heightened Def Con from 3.33107e-005 to 3.33117e-005
Heightened Def Con from 3.33211e-005 +to 3.33221e-005
Heightened Def Con from 3.33229e-005 +to 3.33229e-005
Heightened Def Con from 3.33229e-005 +to 3.3324e-005
Heightened Def Con from 3.3324e-005 to 3.3325e-005
Heightened Def Con from 3.3325e-005 to 3.33251e-005
Heightened Def Con from 3.33252e-005 to 3.33252e-005
Heightened Def Con from 3.33252e-005 to 3.33254e-005
Heightened Def Con from 3.33254e-005 to 3.33264e-005
Heightened Def Con from 3.33287e-005 +to 3.33297e-005
Heightened Def Con from 3.33297e-005 to 3.33307e-005
Heightened Def Con from 3.33332e-005 to 3.33332e-005
Heightened Def Con from 3.33332e-005 to 3.33352e-005
Heightened Def Con from 3.33378e-005 to 3.3338e-005
Heightened Def Con from 3.3338e-005 to 3.3339e-005
Heightened Def Con from 3.33395e-005 to 3.33397e-005
Heightened Def Con from 3.33398e-005 +to 3.334e-005
Heightened Def Con from 3.33411e-005 +to 3.33411e-005
Heightened Def Con from 3.33411e-005 to 3.33411e-005
Heightened Def Con from 3.33411e-005 to 3.33411e-005
Heightened Def Con from 3.33411e-005 +to 3.33423e-005
Heightened Def Con from 3.33423e-005 +to 3.33424e-005
Heightened Def Con from 3.33424e-005 +to 3.33434e-005
Heightened Def Con from 3.33504e-005 +to 3.33514e-005
Heightened Def Con from 3.33679e-005 to 3.3369e-005
Heightened Def Con from 3.33691e-005 to 3.33701e-005
Heightened Def Con from 3.33701e-005 +to 3.33711e-005
Heightened Def Con from 3.33711e-005 to 3.33712e-005
Heightened Def Con from 3.33712e-005 to 3.33732e-005
Heightened Def Con from 3.33732e-005 to 3.33742e-005
Heightened Def Con from 3.33742e-005 ++to 3.33742e-005
Heightened Def Con from 3.33742e-005 +to 3.33744e-005
Heightened Def Con from 3.33744e-005 to 3.33744e-005
Heightened Def Con from 3.33744e-005 ++to 3.33745e-005
Heightened Def Con from 3.33745e-005 to 3.33746e-005
Heightened Def Con from 3.33746e-005 to 3.33766e-005
Heightened Def Con from 3.33766e-005 +to 3.33786e-005
Heightened Def Con from 3.33786e-005 to 3.33806e-005
Heightened Def Con from 3.33807e-005 to 3.33808e-005
Heightened Def Con from 3.33808e-005 to 3.33818e-005
Heightened Def Con from 3.33832e-005 to 3.33852e-005
Heightened Def Con from 3.33852e-005 to 3.33862e-005
Heightened Def Con from 3.33865e-005 to 3.33866e-005
Heightened Def Con from 3.33903e-005 to 3.33903e-005
Heightened Def Con from 3.33903e-005 ++to 3.33924e-005
Heightened Def Con from 3.33926e-005 to 3.33926e-005
Heightened Def Con from 3.33927e-005 to 3.33929e-005
Heightened Def Con from 3.33932e-005 to 3.33943e-005
Heightened Def Con from 3.33943e-005 to 3.33953e-005
Heightened Def Con from 3.34018e-005 to 3.34018e-005
Heightened Def Con from 3.34018e-005 to 3.3402e-005
Heightened Def Con from 3.3402e-005 +to 3.3403e-005
Heightened Def Con from 3.3403e-005 to 3.3404e-005
Heightened Def Con from 3.3404e-005 to 3.34051e-005
Heightened Def Con from 3.34051e-005 to 3.34053e-005
Heightened Def Con from 3.34053e-005 +to 3.34063e-005
Heightened Def Con from 3.34088e-005 to 3.34098e-005
Heightened Def Con from 3.34098e-005 to 3.34098e-005
Heightened Def Con from 3.34098e-005 +to 3.34108e-005
Heightened Def Con from 3.34128e-005 +to 3.34138e-005
Heightened Def Con from 3.34138e-005 to 3.34138e-005
Heightened Def Con from 3.34138e-005 to 3.34149e-005
Heightened Def Con from 3.34149e-005 to 3.34159e-005
Heightened Def Con from 3.34159e-005 to 3.3416e-005
Heightened Def Con from 3.34181e-005 to 3.34192e-005
Heightened Def Con from 3.34192e-005 to 3.34202e-005
Heightened Def Con from 3.34204e-005 to 3.34205e-005
Heightened Def Con from 3.34209e-005 to 3.34229e-005
Heightened Def Con from 3.34231e-005 +to 3.34232e-005
Heightened Def Con from 3.34235e-005 +to 3.34245e-005
Heightened Def Con from 3.34265e-005 +to 3.34275e-005
Heightened Def Con from 3.34296e-005 +to 3.34296e-005
Heightened Def Con from 3.34296e-005 to 3.34299e-005
Heightened Def Con from 3.34299e-005 to 3.34309e-005
Heightened Def Con from 3.34314e-005 +to 3.34324e-005
Heightened Def Con from 3.34344e-005 to 3.34364e-005
Heightened Def Con from 3.34384e-005 to 3.34394e-005
Heightened Def Con from 3.34472e-005 to 3.34492e-005
Heightened Def Con from 3.34492e-005 to 3.34503e-005
Heightened Def Con from 3.34503e-005 +to 3.34513e-005
Heightened Def Con from 3.34513e-005 to 3.34513e-005
Heightened Def Con from 3.34513e-005 to 3.34514e-005
Heightened Def Con from 3.34514e-005 to 3.34515e-005
Heightened Def Con from 3.34515e-005 to 3.34515e-005
Heightened Def Con from 3.34515e-005 +to 3.34517e-005
Heightened Def Con from 3.34519e-005 to 3.3452e-005
Heightened Def Con from 3.3452e-005 to 3.3453e-005
Heightened Def Con from 3.34545e-005 ++to 3.34555e-005
Heightened Def Con from 3.3459e-005 to 3.34591e-005
Heightened Def Con from 3.34596e-005 to 3.34597e-005
Heightened Def Con from 3.34597e-005 to 3.34607e-005
Heightened Def Con from 3.34607e-005 ++to 3.34608e-005
Heightened Def Con from 3.34608e-005 to 3.34618e-005
Heightened Def Con from 3.34618e-005 to 3.34619e-005
Heightened Def Con from 3.3462e-005 ++to 3.3463e-005
Heightened Def Con from 3.34632e-005 +to 3.34642e-005
Heightened Def Con from 3.3465e-005 +to 3.3466e-005
Heightened Def Con from 3.3466e-005 to 3.3467e-005
Heightened Def Con from 3.3467e-005 to 3.3468e-005
Heightened Def Con from 3.3482e-005 +to 3.3483e-005
Heightened Def Con from 3.34833e-005 +to 3.34843e-005
Heightened Def Con from 3.34843e-005 to 3.34863e-005
Heightened Def Con from 3.34864e-005 to 3.34874e-005
Heightened Def Con from 3.34874e-005 +to 3.34884e-005
Heightened Def Con from 3.34884e-005 to 3.34904e-005
Heightened Def Con from 3.34904e-005 to 3.34904e-005
Heightened Def Con from 3.34904e-005 to 3.34924e-005
Heightened Def Con from 3.3495e-005 to 3.34952e-005
Heightened Def Con from 3.35005e-005 to 3.35006e-005
Heightened Def Con from 3.35006e-005 +to 3.35007e-005
Heightened Def Con from 3.35016e-005 to 3.35026e-005
Heightened Def Con from 3.35089e-005 to 3.35109e-005
Heightened Def Con from 3.35129e-005 to 3.35139e-005
Heightened Def Con from 3.35142e-005 to 3.35142e-005
Heightened Def Con from 3.35142e-005 to 3.35162e-005
Heightened Def Con from 3.352e-005 to 3.352e-005
Heightened Def Con from 3.352e-005 +to 3.35202e-005
Heightened Def Con from 3.35202e-005 to 3.35202e-005
Heightened Def Con from 3.35202e-005 +to 3.35212e-005
Heightened Def Con from 3.35229e-005 +to 3.35239e-005
Heightened Def Con from 3.35259e-005 to 3.35279e-005
Heightened Def Con from 3.35304e-005 to 3.35314e-005
Heightened Def Con from 3.35317e-005 to 3.35327e-005
Heightened Def Con from 3.35327e-005 to 3.35327e-005
Heightened Def Con from 3.35327e-005 to 3.35338e-005
Heightened Def Con from 3.35338e-005 to 3.35348e-005
Heightened Def Con from 3.3535e-005 ++to 3.3536e-005
Heightened Def Con from 3.35385e-005 to 3.35405e-005
Heightened Def Con from 3.35408e-005 to 3.35418e-005
Heightened Def Con from 3.35439e-005 +to 3.35439e-005
Heightened Def Con from 3.35439e-005 to 3.35449e-005
Heightened Def Con from 3.35451e-005 +to 3.35452e-005
Heightened Def Con from 3.35452e-005 +to 3.35462e-005
Heightened Def Con from 3.35478e-005 to 3.35478e-005
Heightened Def Con from 3.35478e-005 to 3.35481e-005
Heightened Def Con from 3.35481e-005 to 3.35481e-005
Heightened Def Con from 3.35481e-005 to 3.35482e-005
Heightened Def Con from 3.35482e-005 to 3.35483e-005
Heightened Def Con from 3.35483e-005 to 3.35483e-005
Heightened Def Con from 3.35483e-005 to 3.35483e-005
Heightened Def Con from 3.35483e-005 +to 3.35503e-005
Heightened Def Con from 3.35511e-005 to 3.35522e-005
Heightened Def Con from 3.35525e-005 to 3.35526e-005
Heightened Def Con from 3.35527e-005 to 3.35537e-005
Heightened Def Con from 3.35537e-005 +to 3.35538e-005
Heightened Def Con from 3.35538e-005 to 3.35558e-005
Heightened Def Con from 3.35579e-005 to 3.35579e-005
Heightened Def Con from 3.35579e-005 to 3.3558e-005
Heightened Def Con from 3.35589e-005 to 3.3559e-005
Heightened Def Con from 3.3559e-005 +to 3.35602e-005
Heightened Def Con from 3.35646e-005 to 3.35646e-005
Heightened Def Con from 3.35646e-005 to 3.35666e-005
Heightened Def Con from 3.35686e-005 +to 3.35696e-005
Heightened Def Con from 3.35696e-005 to 3.35716e-005
Heightened Def Con from 3.35716e-005 to 3.35717e-005
Heightened Def Con from 3.35717e-005 to 3.35727e-005
Heightened Def Con from 3.35772e-005 ++to 3.35782e-005
Heightened Def Con from 3.35922e-005 to 3.35933e-005
Heightened Def Con from 3.35933e-005 to 3.35934e-005
Heightened Def Con from 3.35934e-005 to 3.35934e-005
Heightened Def Con from 3.35934e-005 to 3.35945e-005
Heightened Def Con from 3.35964e-005 to 3.35974e-005
Heightened Def Con from 3.37323e-005 to 3.37333e-005
Heightened Def Con from 3.37333e-005 to 3.37335e-005
Heightened Def Con from 3.37337e-005 +to 3.37347e-005
Heightened Def Con from 3.37354e-005 to 3.37354e-005
Heightened Def Con from 3.37354e-005 to 3.37354e-005
Heightened Def Con from 3.37354e-005 to 3.37366e-005
Heightened Def Con from 3.37366e-005 to 3.37366e-005
Heightened Def Con from 3.37367e-005 +to 3.37377e-005
Heightened Def Con from 3.37379e-005 to 3.37389e-005
Heightened Def Con from 3.37394e-005 to 3.37404e-005
Heightened Def Con from 3.37404e-005 +to 3.37404e-005
Heightened Def Con from 3.37404e-005 to 3.37424e-005
Heightened Def Con from 3.37424e-005 to 3.37434e-005
Heightened Def Con from 3.37434e-005 +to 3.37435e-005
Heightened Def Con from 3.37438e-005 +to 3.37438e-005
Heightened Def Con from 3.37439e-005 to 3.3744e-005
Heightened Def Con from 3.3744e-005 +to 3.3746e-005
Heightened Def Con from 3.37483e-005 to 3.37493e-005
Heightened Def Con from 3.37494e-005 +to 3.37504e-005
Heightened Def Con from 3.37529e-005 to 3.37529e-005
Heightened Def Con from 3.37529e-005 to 3.3753e-005
Heightened Def Con from 3.37531e-005 +to 3.37531e-005
Heightened Def Con from 3.37531e-005 ++to 3.37541e-005
Heightened Def Con from 3.37541e-005 +to 3.37541e-005
Heightened Def Con from 3.37541e-005 to 3.37543e-005
Heightened Def Con from 3.37543e-005 to 3.37553e-005
Heightened Def Con from 3.37553e-005 to 3.37554e-005
Heightened Def Con from 3.37568e-005 to 3.37578e-005
Heightened Def Con from 3.37586e-005 to 3.37586e-005
Heightened Def Con from 3.37586e-005 to 3.37606e-005
Heightened Def Con from 3.37608e-005 to 3.37628e-005
Heightened Def Con from 3.37628e-005 to 3.37648e-005
Heightened Def Con from 3.37788e-005 to 3.37798e-005
Heightened Def Con from 3.37818e-005 to 3.3782e-005
Heightened Def Con from 3.3782e-005 to 3.3782e-005
Heightened Def Con from 3.37821e-005 +to 3.37822e-005
Heightened Def Con from 3.37823e-005 to 3.37833e-005
Heightened Def Con from 3.37833e-005 to 3.37833e-005
Heightened Def Con from 3.37833e-005 to 3.37853e-005
Heightened Def Con from 3.37873e-005 to 3.37883e-005
Heightened Def Con from 3.37883e-005 to 3.37903e-005
Heightened Def Con from 3.37903e-005 to 3.37913e-005
Heightened Def Con from 3.37916e-005 to 3.37926e-005
Heightened Def Con from 3.37926e-005 to 3.37927e-005
Heightened Def Con from 3.37927e-005 to 3.37928e-005
Heightened Def Con from 3.37929e-005 ++to 3.3794e-005
Heightened Def Con from 3.3794e-005 to 3.3795e-005
Heightened Def Con from 3.3795e-005 to 3.37961e-005
Heightened Def Con from 3.37962e-005 to 3.37962e-005
Heightened Def Con from 3.37962e-005 +to 3.37973e-005
Heightened Def Con from 3.37973e-005 to 3.37983e-005
Heightened Def Con from 3.37999e-005 to 3.38019e-005
Heightened Def Con from 3.38039e-005 +to 3.38059e-005
Heightened Def Con from 3.3806e-005 +to 3.3807e-005
Heightened Def Con from 3.3807e-005 +to 3.3807e-005
Heightened Def Con from 3.3807e-005 +to 3.3808e-005
Heightened Def Con from 3.38133e-005 to 3.38133e-005
Heightened Def Con from 3.38133e-005 +to 3.38144e-005
Heightened Def Con from 3.38144e-005 to 3.38145e-005
Heightened Def Con from 3.38145e-005 +to 3.38146e-005
Heightened Def Con from 3.38146e-005 to 3.38156e-005
Heightened Def Con from 3.38173e-005 to 3.38184e-005
Heightened Def Con from 3.38184e-005 +to 3.38186e-005
Heightened Def Con from 3.38191e-005 +to 3.38192e-005
Heightened Def Con from 3.38201e-005 ++to 3.38202e-005
Heightened Def Con from 3.38202e-005 to 3.38212e-005
Heightened Def Con from 3.3823e-005 +to 3.38232e-005
Heightened Def Con from 3.38232e-005 to 3.38252e-005
Heightened Def Con from 3.38277e-005 to 3.38278e-005
Heightened Def Con from 3.38278e-005 to 3.38289e-005
Heightened Def Con from 3.38289e-005 to 3.383e-005
Heightened Def Con from 3.38303e-005 +to 3.38313e-005
Heightened Def Con from 3.38316e-005 to 3.38326e-005
Heightened Def Con from 3.38368e-005 to 3.38378e-005
Heightened Def Con from 3.38385e-005 to 3.38386e-005
Heightened Def Con from 3.38396e-005 to 3.38407e-005
Heightened Def Con from 3.38407e-005 to 3.38427e-005
Heightened Def Con from 3.38447e-005 to 3.38448e-005
Heightened Def Con from 3.38449e-005 +to 3.3845e-005
Heightened Def Con from 3.3845e-005 to 3.38452e-005
Heightened Def Con from 3.38452e-005 to 3.38463e-005
Heightened Def Con from 3.38463e-005 to 3.38465e-005
Heightened Def Con from 3.38467e-005 +to 3.38469e-005
Heightened Def Con from 3.3847e-005 +to 3.3847e-005
Heightened Def Con from 3.3847e-005 +to 3.3848e-005
Heightened Def Con from 3.38481e-005 to 3.38491e-005
Heightened Def Con from 3.38503e-005 +to 3.38514e-005
Heightened Def Con from 3.38523e-005 +to 3.38533e-005
Heightened Def Con from 3.38553e-005 to 3.38553e-005
Heightened Def Con from 3.38553e-005 +to 3.38563e-005
Heightened Def Con from 3.38564e-005 to 3.38584e-005
Heightened Def Con from 3.38604e-005 to 3.38604e-005
Heightened Def Con from 3.38604e-005 to 3.38604e-005
Heightened Def Con from 3.38604e-005 to 3.38604e-005
Heightened Def Con from 3.38604e-005 to 3.38605e-005
Heightened Def Con from 3.38605e-005 to 3.38605e-005
Heightened Def Con from 3.38605e-005 to 3.38625e-005
Heightened Def Con from 3.3866e-005 to 3.3867e-005
Heightened Def Con from 3.38695e-005 to 3.38705e-005
Heightened Def Con from 3.38774e-005 to 3.38784e-005
Heightened Def Con from 3.38951e-005 to 3.38961e-005
Heightened Def Con from 3.38961e-005 to 3.38972e-005
Heightened Def Con from 3.38972e-005 to 3.38972e-005
Heightened Def Con from 3.38972e-005 to 3.38992e-005
Heightened Def Con from 3.39012e-005 to 3.39022e-005
Heightened Def Con from 3.39022e-005 +to 3.39022e-005
Heightened Def Con from 3.39022e-005 to 3.39042e-005
Heightened Def Con from 3.39152e-005 to 3.39153e-005
Heightened Def Con from 3.3916e-005 ++to 3.3917e-005
Heightened Def Con from 3.39471e-005 to 3.39472e-005
Heightened Def Con from 3.39473e-005 to 3.39483e-005
Heightened Def Con from 3.39498e-005 to 3.39518e-005
Heightened Def Con from 3.39538e-005 +to 3.39548e-005
Heightened Def Con from 3.3955e-005 to 3.3955e-005
Heightened Def Con from 3.3955e-005 to 3.3957e-005
Heightened Def Con from 3.39595e-005 to 3.39605e-005
Heightened Def Con from 3.3963e-005 to 3.3964e-005
Heightened Def Con from 3.39657e-005 to 3.39677e-005
Heightened Def Con from 3.39741e-005 to 3.39742e-005
Heightened Def Con from 3.39751e-005 +to 3.39771e-005
Heightened Def Con from 3.39806e-005 to 3.39807e-005
Heightened Def Con from 3.3981e-005 +to 3.3981e-005
Heightened Def Con from 3.3981e-005 to 3.39812e-005
Heightened Def Con from 3.39814e-005 to 3.39834e-005
Heightened Def Con from 3.39834e-005 +to 3.39844e-005
Heightened Def Con from 3.39844e-005 +to 3.39856e-005
Heightened Def Con from 3.39863e-005 ++to 3.39865e-005
Heightened Def Con from 3.39865e-005 to 3.39875e-005
Heightened Def Con from 3.39876e-005 to 3.39876e-005
Heightened Def Con from 3.39876e-005 to 3.39887e-005
Heightened Def Con from 3.3989e-005 to 3.399e-005
Heightened Def Con from 3.39902e-005 +to 3.39912e-005
Heightened Def Con from 3.39912e-005 to 3.39932e-005
Heightened Def Con from 3.3994e-005 +to 3.39941e-005
Heightened Def Con from 3.39941e-005 to 3.39951e-005
Heightened Def Con from 3.39969e-005 to 3.39979e-005
Heightened Def Con from 3.39981e-005 to 3.39982e-005
Heightened Def Con from 3.39982e-005 to 3.40002e-005
Heightened Def Con from 3.40282e-005 to 3.40292e-005
Heightened Def Con from 3.40472e-005 +to 3.40482e-005
Heightened Def Con from 3.40543e-005 +to 3.40553e-005
Heightened Def Con from 3.40588e-005 to 3.40598e-005
Heightened Def Con from 3.40619e-005 to 3.40629e-005
Heightened Def Con from 3.40629e-005 to 3.4063e-005
Heightened Def Con from 3.40633e-005 +++to 3.40653e-005
Heightened Def Con from 3.40673e-005 ++to 3.40693e-005
Heightened Def Con from 3.40693e-005 to 3.40693e-005
Heightened Def Con from 3.40693e-005 to 3.40713e-005
Heightened Def Con from 3.40714e-005 to 3.40714e-005
Heightened Def Con from 3.40715e-005 to 3.40725e-005
Heightened Def Con from 3.40725e-005 to 3.40726e-005
Heightened Def Con from 3.40729e-005 +to 3.40739e-005
Heightened Def Con from 3.40739e-005 to 3.40759e-005
Heightened Def Con from 3.40759e-005 to 3.40771e-005
Heightened Def Con from 3.40771e-005 to 3.40781e-005
Heightened Def Con from 3.40803e-005 to 3.40813e-005
Heightened Def Con from 3.40813e-005 to 3.40833e-005
Heightened Def Con from 3.40836e-005 to 3.40846e-005
Heightened Def Con from 3.40846e-005 to 3.40847e-005
Heightened Def Con from 3.40847e-005 to 3.40848e-005
Heightened Def Con from 3.40848e-005 to 3.40868e-005
Heightened Def Con from 3.4089e-005 to 3.4089e-005
Heightened Def Con from 3.4089e-005 to 3.4091e-005
Heightened Def Con from 3.40914e-005 to 3.40915e-005
Heightened Def Con from 3.40915e-005 to 3.40916e-005
Heightened Def Con from 3.40916e-005 ++to 3.40927e-005
Heightened Def Con from 3.40928e-005 +to 3.40938e-005
Heightened Def Con from 3.40939e-005 to 3.40939e-005
Heightened Def Con from 3.40939e-005 to 3.4094e-005
Heightened Def Con from 3.40943e-005 to 3.40944e-005
Heightened Def Con from 3.40947e-005 to 3.40967e-005
Heightened Def Con from 3.40991e-005 to 3.41011e-005
Heightened Def Con from 3.41031e-005 to 3.41042e-005
Heightened Def Con from 3.41042e-005 ++to 3.41052e-005
Heightened Def Con from 3.41054e-005 to 3.41054e-005
Heightened Def Con from 3.41055e-005 to 3.41056e-005
Heightened Def Con from 3.41056e-005 to 3.41066e-005
Heightened Def Con from 3.41067e-005 +to 3.41077e-005
Heightened Def Con from 3.41097e-005 to 3.41097e-005
Heightened Def Con from 3.41097e-005 +to 3.41107e-005
Heightened Def Con from 3.42077e-005 to 3.42087e-005
Heightened Def Con from 3.42088e-005 ++to 3.4209e-005
Heightened Def Con from 3.4209e-005 +to 3.421e-005
Heightened Def Con from 3.42101e-005 ++to 3.42111e-005
Heightened Def Con from 3.42118e-005 +to 3.42128e-005
Heightened Def Con from 3.42163e-005 to 3.42173e-005
Heightened Def Con from 3.42174e-005 to 3.42174e-005
Heightened Def Con from 3.42175e-005 to 3.42185e-005
Heightened Def Con from 3.42185e-005 to 3.42195e-005
Heightened Def Con from 3.42195e-005 +to 3.42205e-005
Heightened Def Con from 3.4223e-005 to 3.4224e-005
Heightened Def Con from 3.4224e-005 to 3.4225e-005
Heightened Def Con from 3.42259e-005 to 3.42269e-005
Heightened Def Con from 3.4227e-005 to 3.4228e-005
Heightened Def Con from 3.42335e-005 to 3.42345e-005
Heightened Def Con from 3.42352e-005 +to 3.42362e-005
Heightened Def Con from 3.42514e-005 +to 3.42524e-005
Heightened Def Con from 3.42544e-005 to 3.42555e-005
Heightened Def Con from 3.42557e-005 to 3.42567e-005
Heightened Def Con from 3.42567e-005 to 3.42567e-005
Heightened Def Con from 3.42568e-005 +to 3.42588e-005
Heightened Def Con from 3.42614e-005 to 3.42614e-005
Heightened Def Con from 3.42614e-005 +to 3.42615e-005
Heightened Def Con from 3.42615e-005 +to 3.42615e-005
Heightened Def Con from 3.42615e-005 +to 3.42617e-005
Heightened Def Con from 3.42617e-005 to 3.42617e-005
Heightened Def Con from 3.42618e-005 to 3.42619e-005
Heightened Def Con from 3.42619e-005 +to 3.4263e-005
Heightened Def Con from 3.4263e-005 to 3.42641e-005
Heightened Def Con from 3.42641e-005 to 3.42641e-005
Heightened Def Con from 3.42641e-005 +to 3.42641e-005
Heightened Def Con from 3.42641e-005 to 3.42661e-005
Heightened Def Con from 3.42686e-005 to 3.42686e-005
Heightened Def Con from 3.42686e-005 +to 3.42706e-005
Heightened Def Con from 3.43326e-005 to 3.43326e-005
Heightened Def Con from 3.43326e-005 to 3.43326e-005
Heightened Def Con from 3.43326e-005 +to 3.43337e-005
Heightened Def Con from 3.43345e-005 +to 3.43345e-005
Heightened Def Con from 3.43345e-005 to 3.43365e-005
Heightened Def Con from 3.43513e-005 to 3.43523e-005
Heightened Def Con from 3.43524e-005 to 3.43534e-005
Heightened Def Con from 3.43534e-005 to 3.43534e-005
Heightened Def Con from 3.43534e-005 to 3.43545e-005
Heightened Def Con from 3.43545e-005 to 3.43555e-005
Heightened Def Con from 3.43555e-005 to 3.43565e-005
Heightened Def Con from 3.43625e-005 to 3.43625e-005
Heightened Def Con from 3.43625e-005 to 3.43636e-005
Heightened Def Con from 3.43637e-005 +to 3.43638e-005
Heightened Def Con from 3.43638e-005 to 3.43649e-005
Heightened Def Con from 3.43686e-005 to 3.43688e-005
Heightened Def Con from 3.43688e-005 to 3.43698e-005
Heightened Def Con from 3.43759e-005 to 3.4376e-005
Heightened Def Con from 3.4376e-005 to 3.4377e-005
Heightened Def Con from 3.4377e-005 to 3.4378e-005
Heightened Def Con from 3.43805e-005 to 3.43807e-005
Heightened Def Con from 3.43807e-005 to 3.43808e-005
Heightened Def Con from 3.43808e-005 to 3.43818e-005
Heightened Def Con from 3.43818e-005 to 3.43828e-005
Heightened Def Con from 3.4389e-005 +to 3.43891e-005
Heightened Def Con from 3.43898e-005 to 3.43918e-005
Heightened Def Con from 3.43918e-005 to 3.4392e-005
Heightened Def Con from 3.4392e-005 to 3.43921e-005
Heightened Def Con from 3.43921e-005 ++to 3.43931e-005
Heightened Def Con from 3.43931e-005 to 3.43932e-005
Heightened Def Con from 3.43932e-005 ++to 3.43942e-005
Heightened Def Con from 3.44243e-005 to 3.44243e-005
Heightened Def Con from 3.44243e-005 to 3.44244e-005
Heightened Def Con from 3.44244e-005 to 3.44254e-005
Heightened Def Con from 3.44257e-005 +to 3.44267e-005
Heightened Def Con from 3.44327e-005 to 3.44327e-005
Heightened Def Con from 3.44327e-005 to 3.44347e-005
Heightened Def Con from 3.44455e-005 to 3.44475e-005
Heightened Def Con from 3.45095e-005 to 3.45096e-005
Heightened Def Con from 3.45096e-005 +to 3.45116e-005
Heightened Def Con from 3.45177e-005 to 3.45187e-005
Heightened Def Con from 3.452e-005 to 3.4521e-005
Heightened Def Con from 3.45229e-005 to 3.45249e-005
Heightened Def Con from 3.45257e-005 to 3.45259e-005
Heightened Def Con from 3.45259e-005 to 3.45269e-005
Heightened Def Con from 3.45269e-005 to 3.45279e-005
Heightened Def Con from 3.8502e-005 to 3.8503e-005
Heightened Def Con from 3.85068e-005 to 3.85078e-005
Heightened Def Con from 3.85096e-005 to 3.85106e-005
Heightened Def Con from 3.85106e-005 to 3.85126e-005
Heightened Def Con from 3.85186e-005 to 3.85186e-005
Heightened Def Con from 3.85187e-005 to 3.85188e-005
Heightened Def Con from 3.85191e-005 to 3.85192e-005
Heightened Def Con from 3.85201e-005 to 3.85211e-005
Heightened Def Con from 3.85761e-005 to 3.85762e-005
Heightened Def Con from 3.85766e-005 to 3.85768e-005
Heightened Def Con from 3.85768e-005 +to 3.85778e-005
Heightened Def Con from 3.85789e-005 to 3.85799e-005
Heightened Def Con from 3.858e-005 to 3.858e-005
Heightened Def Con from 3.858e-005 to 3.8581e-005
Heightened Def Con from 3.85812e-005 to 3.85812e-005
Heightened Def Con from 3.85812e-005 to 3.85812e-005
Heightened Def Con from 3.85812e-005 +to 3.85822e-005
Heightened Def Con from 3.85883e-005 to 3.85885e-005
Heightened Def Con from 3.85886e-005 to 3.85886e-005
Heightened Def Con from 3.85886e-005 to 3.85896e-005
Heightened Def Con from 3.85896e-005 to 3.85897e-005
Heightened Def Con from 3.85897e-005 to 3.85908e-005
Heightened Def Con from 3.85908e-005 to 3.85928e-005
Heightened Def Con from 3.85948e-005 to 3.85968e-005
Heightened Def Con from 3.85994e-005 to 3.86004e-005
Heightened Def Con from 3.86126e-005 +to 3.86127e-005
Heightened Def Con from 3.8614e-005 to 3.8616e-005
Heightened Def Con from 3.86203e-005 to 3.86203e-005
Heightened Def Con from 3.86203e-005 to 3.86203e-005
Heightened Def Con from 3.86203e-005 to 3.86204e-005
Heightened Def Con from 3.86204e-005 +to 3.86214e-005
Heightened Def Con from 3.8625e-005 to 3.8626e-005
Heightened Def Con from 4.29631e-005 to 4.29641e-005
Heightened Def Con from 4.29648e-005 to 4.29658e-005
Heightened Def Con from 4.6541e-005 to 4.65412e-005
Heightened Def Con from 4.65414e-005 to 4.65415e-005
Heightened Def Con from 4.65416e-005 to 4.65427e-005
Heightened Def Con from 4.65434e-005 to 4.65436e-005
Heightened Def Con from 4.65436e-005 to 4.65446e-005
Heightened Def Con from 4.65816e-005 to 4.65827e-005
Heightened Def Con from 4.65835e-005 to 4.65845e-005
Heightened Def Con from 4.65845e-005 to 4.65865e-005
Heightened Def Con from 4.65865e-005 to 4.65875e-005
Heightened Def Con from 4.6614e-005 to 4.6615e-005
Heightened Def Con from 4.69082e-005 to 4.69082e-005
Heightened Def Con from 4.69082e-005 to 4.69102e-005
Heightened Def Con from 4.69104e-005 to 4.69124e-005
Heightened Def Con from 4.69125e-005 to 4.69127e-005
Heightened Def Con from 4.69127e-005 to 4.69137e-005
Heightened Def Con from 4.69156e-005 to 4.69156e-005
Heightened Def Con from 4.69158e-005 to 4.69168e-005
Heightened Def Con from 4.69188e-005 to 4.69198e-005
Heightened Def Con from 4.69199e-005 +to 4.69209e-005
Heightened Def Con from 4.69369e-005 to 4.69379e-005
Heightened Def Con from 4.6938e-005 to 4.6938e-005
Heightened Def Con from 4.6938e-005 to 4.6938e-005
Heightened Def Con from 4.6938e-005 to 4.6938e-005
Heightened Def Con from 4.6938e-005 to 4.69391e-005
Heightened Def Con from 4.69479e-005 to 4.69499e-005
Heightened Def Con from 4.6952e-005 to 4.69532e-005
Heightened Def Con from 4.69543e-005 to 4.69545e-005
Heightened Def Con from 4.69545e-005 to 4.69546e-005
Heightened Def Con from 4.69549e-005 to 4.69549e-005
Heightened Def Con from 4.6955e-005 to 4.69561e-005
Heightened Def Con from 4.69604e-005 to 4.69614e-005
Heightened Def Con from 4.69635e-005 to 4.69636e-005
Heightened Def Con from 4.69656e-005 to 4.69657e-005
Heightened Def Con from 4.69657e-005 to 4.69667e-005
Heightened Def Con from 4.69667e-005 to 4.69669e-005
Heightened Def Con from 4.69671e-005 to 4.69672e-005
Heightened Def Con from 4.69673e-005 to 4.69683e-005
Heightened Def Con from 4.69707e-005 to 4.69717e-005
Heightened Def Con from 4.6972e-005 to 4.6972e-005
Heightened Def Con from 4.6972e-005 to 4.6973e-005
Heightened Def Con from 4.69735e-005 to 4.69736e-005
Heightened Def Con from 4.69736e-005 to 4.69756e-005
Heightened Def Con from 4.69756e-005 to 4.69766e-005
Heightened Def Con from 4.69766e-005 to 4.69766e-005
Heightened Def Con from 4.69769e-005 to 4.69789e-005
Heightened Def Con from 4.69792e-005 to 4.69802e-005
Heightened Def Con from 4.70153e-005 to 4.70163e-005
Heightened Def Con from 4.7017e-005 +to 4.7018e-005
Heightened Def Con from 4.70181e-005 to 4.70181e-005
Heightened Def Con from 4.70181e-005 to 4.70183e-005
Heightened Def Con from 4.70183e-005 to 4.70193e-005
Heightened Def Con from 4.70193e-005 to 4.70194e-005
Heightened Def Con from 4.70206e-005 to 4.70216e-005
Heightened Def Con from 4.70276e-005 to 4.70287e-005
Heightened Def Con from 4.70287e-005 to 4.70297e-005
Heightened Def Con from 4.70298e-005 to 4.70298e-005
Heightened Def Con from 4.70298e-005 to 4.70298e-005
Heightened Def Con from 4.70315e-005 to 4.70315e-005
Heightened Def Con from 4.70315e-005 to 4.70315e-005
Heightened Def Con from 4.70315e-005 to 4.70325e-005
Heightened Def Con from 4.70342e-005 to 4.70343e-005
Heightened Def Con from 4.70346e-005 to 4.70356e-005
Heightened Def Con from 4.71e-005 ++to 4.71013e-005
Heightened Def Con from 4.71013e-005 to 4.71053e-005
Heightened Def Con from 4.71088e-005 +to 4.71099e-005
Heightened Def Con from 4.71099e-005 to 4.71129e-005
Heightened Def Con from 4.71129e-005 ++to 4.71159e-005
Heightened Def Con from 4.7116e-005 to 4.7116e-005
Heightened Def Con from 5.43661e-005 to 5.43671e-005
Heightened Def Con from 5.43698e-005 +to 5.43699e-005
Heightened Def Con from 5.43701e-005 to 5.43711e-005
Heightened Def Con from 5.43806e-005 to 5.43808e-005
Heightened Def Con from 5.43808e-005 to 5.43818e-005
Heightened Def Con from 5.43818e-005 to 5.43828e-005
Heightened Def Con from 5.43845e-005 to 5.43865e-005
Heightened Def Con from 5.44165e-005 to 5.44166e-005
Heightened Def Con from 5.44167e-005 +to 5.44177e-005
Heightened Def Con from 5.44177e-005 to 5.44187e-005
Heightened Def Con from 5.44188e-005 +to 5.44198e-005
Heightened Def Con from 5.44205e-005 +to 5.44225e-005
Heightened Def Con from 5.44246e-005 to 5.44266e-005
Heightened Def Con from 5.44267e-005 to 5.44268e-005
Heightened Def Con from 5.44271e-005 to 5.44281e-005
Heightened Def Con from 5.44306e-005 to 5.44316e-005
Heightened Def Con from 5.44316e-005 to 5.44317e-005
Heightened Def Con from 5.4432e-005 to 5.44321e-005
Heightened Def Con from 5.44322e-005 to 5.44322e-005
Heightened Def Con from 5.44322e-005 to 5.44342e-005
Heightened Def Con from 5.44412e-005 +to 5.44422e-005
Heightened Def Con from 5.44447e-005 to 5.44447e-005
Heightened Def Con from 5.44447e-005 to 5.44449e-005
Heightened Def Con from 5.44449e-005 +to 5.44459e-005
Heightened Def Con from 5.44459e-005 to 5.44469e-005
Heightened Def Con from 5.44469e-005 to 5.44469e-005
Heightened Def Con from 5.44469e-005 to 5.44471e-005
Heightened Def Con from 5.44474e-005 to 5.44474e-005
Heightened Def Con from 5.44474e-005 +to 5.44484e-005
Heightened Def Con from 5.44484e-005 to 5.44496e-005
Heightened Def Con from 5.44496e-005 to 5.44497e-005
Heightened Def Con from 5.44497e-005 to 5.44507e-005
Heightened Def Con from 5.44532e-005 +to 5.44542e-005
Heightened Def Con from 5.44542e-005 to 5.44562e-005
Heightened Def Con from 5.44675e-005 +++to 5.44685e-005
Heightened Def Con from 5.44687e-005 +to 5.44707e-005
Heightened Def Con from 5.4476e-005 +to 5.4477e-005
Heightened Def Con from 5.44773e-005 to 5.44773e-005
Heightened Def Con from 5.44773e-005 to 5.44793e-005
Heightened Def Con from 5.44853e-005 to 5.44863e-005
Heightened Def Con from 5.44863e-005 to 5.44864e-005
Heightened Def Con from 5.44872e-005 to 5.44882e-005
Heightened Def Con from 5.44884e-005 to 5.44886e-005
Heightened Def Con from 5.44886e-005 +to 5.44886e-005
Heightened Def Con from 5.44886e-005 to 5.44897e-005
Heightened Def Con from 5.449e-005 to 5.4491e-005
Heightened Def Con from 5.44921e-005 to 5.44941e-005
Heightened Def Con from 5.45001e-005 to 5.45011e-005
Heightened Def Con from 5.45014e-005 to 5.45025e-005
Heightened Def Con from 5.45025e-005 ++to 5.45036e-005
Heightened Def Con from 5.45036e-005 to 5.45046e-005
Heightened Def Con from 5.45066e-005 +to 5.45076e-005
Heightened Def Con from 5.45101e-005 to 5.45111e-005
Heightened Def Con from 5.45111e-005 +to 5.45113e-005
Heightened Def Con from 5.45113e-005 to 5.45123e-005
Heightened Def Con from 5.45123e-005 to 5.45143e-005
Heightened Def Con from 5.45163e-005 to 5.45163e-005
Heightened Def Con from 5.45163e-005 +to 5.45173e-005
Heightened Def Con from 5.45176e-005 to 5.45186e-005
Heightened Def Con from 5.45272e-005 to 5.45273e-005
Heightened Def Con from 5.45274e-005 to 5.45284e-005
Heightened Def Con from 5.45356e-005 to 5.45357e-005
Heightened Def Con from 5.45357e-005 to 5.45367e-005
Heightened Def Con from 5.45387e-005 to 5.45397e-005
Heightened Def Con from 5.4547e-005 to 5.45471e-005
Heightened Def Con from 5.45471e-005 +++to 5.45491e-005
Heightened Def Con from 5.45494e-005 to 5.45514e-005
Heightened Def Con from 5.45514e-005 to 5.45514e-005
Heightened Def Con from 5.45514e-005 to 5.45534e-005
Heightened Def Con from 5.45534e-005 +to 5.45544e-005
Heightened Def Con from 5.4769e-005 to 5.477e-005
Heightened Def Con from 5.47702e-005 to 5.47712e-005
Heightened Def Con from 5.47746e-005 to 5.47756e-005
Heightened Def Con from 5.47764e-005 +to 5.47764e-005
Heightened Def Con from 5.47764e-005 to 5.47784e-005
Heightened Def Con from 5.47863e-005 ++to 5.47874e-005
Heightened Def Con from 5.47878e-005 to 5.47898e-005
Heightened Def Con from 5.47901e-005 to 5.47901e-005
Heightened Def Con from 5.47901e-005 to 5.47921e-005
Heightened Def Con from 5.47921e-005 to 5.47941e-005
Heightened Def Con from 5.47944e-005 to 5.47945e-005
Heightened Def Con from 5.47962e-005 to 5.47962e-005
Heightened Def Con from 5.47962e-005 to 5.47962e-005
Heightened Def Con from 5.47962e-005 +to 5.47964e-005
Heightened Def Con from 5.47966e-005 to 5.47967e-005
Heightened Def Con from 5.47971e-005 to 5.47991e-005
Heightened Def Con from 5.47991e-005 +to 5.47992e-005
Heightened Def Con from 5.47995e-005 to 5.48015e-005
Heightened Def Con from 5.48015e-005 to 5.48026e-005
Heightened Def Con from 5.48028e-005 to 5.48038e-005
Heightened Def Con from 5.48038e-005 to 5.4804e-005
Heightened Def Con from 5.48075e-005 to 5.48085e-005
Heightened Def Con from 5.48085e-005 to 5.48095e-005
Heightened Def Con from 5.48108e-005 +to 5.48128e-005
Heightened Def Con from 5.48189e-005 +to 5.48199e-005
Heightened Def Con from 5.48207e-005 to 5.48218e-005
Heightened Def Con from 5.48221e-005 to 5.48222e-005
Heightened Def Con from 5.48223e-005 to 5.48223e-005
Heightened Def Con from 5.48223e-005 to 5.48224e-005
Heightened Def Con from 5.48224e-005 +to 5.48225e-005
Heightened Def Con from 5.48226e-005 to 5.48236e-005
Heightened Def Con from 5.48243e-005 to 5.48244e-005
Heightened Def Con from 5.48247e-005 to 5.48257e-005
Heightened Def Con from 5.48397e-005 +to 5.48407e-005
Heightened Def Con from 5.49667e-005 to 5.49677e-005
Heightened Def Con from 5.49677e-005 to 5.49689e-005
Heightened Def Con from 5.49689e-005 to 5.4969e-005
Heightened Def Con from 5.49691e-005 to 5.49691e-005
Heightened Def Con from 5.49691e-005 to 5.49711e-005
Heightened Def Con from 5.49711e-005 to 5.49712e-005
Heightened Def Con from 5.49723e-005 to 5.49724e-005
Heightened Def Con from 5.49729e-005 to 5.49749e-005
Heightened Def Con from 5.49775e-005 to 5.49795e-005
Heightened Def Con from 5.49903e-005 to 5.49904e-005
Heightened Def Con from 5.49905e-005 to 5.49915e-005
Heightened Def Con from 5.50029e-005 +to 5.50039e-005
Heightened Def Con from 5.50039e-005 to 5.50049e-005
[...]
Heightened Def Con from 0.000494175 to 0.000494176
Heightened Def Con from 0.000494176 +++to 0.000494177
Heightened Def Con from 0.000494179 to 0.000494179
Heightened Def Con from 0.000494179 to 0.00049418
Heightened Def Con from 0.00049418 to 0.00049418
Heightened Def Con from 0.00049418 to 0.000494181
Heightened Def Con from 0.000494181 to 0.000494182
Heightened Def Con from 0.000494182 +to 0.000494183
Heightened Def Con from 0.000494183 to 0.000494184
Heightened Def Con from 0.000494184 to 0.000494185
Heightened Def Con from 0.000494191 ++to 0.000494191
Heightened Def Con from 0.000494191 to 0.000494191
Heightened Def Con from 0.000494191 to 0.000494191
Heightened Def Con from 0.000494191 to 0.000494192
Heightened Def Con from 0.000494192 to 0.000494193
Heightened Def Con from 0.000494193 to 0.000494193
Heightened Def Con from 0.000494193 to 0.000494193
Heightened Def Con from 0.000494193 to 0.000494193
Heightened Def Con from 0.000494193 to 0.000494195
Heightened Def Con from 0.000494198 to 0.000494199
Heightened Def Con from 0.000494199 to 0.000494199
Heightened Def Con from 0.000494199 to 0.000494199
Heightened Def Con from 0.000494199 to 0.0004942
Heightened Def Con from 0.0004942 to 0.0004942
Heightened Def Con from 0.0004942 +to 0.000494201
Heightened Def Con from 0.000494203 +to 0.000494204
Heightened Def Con from 0.000494204 to 0.000494204
Heightened Def Con from 0.000494204 +to 0.000494205
Heightened Def Con from 0.000494205 to 0.000494206
Heightened Def Con from 0.000494206 ++to 0.000494208
Heightened Def Con from 0.000494222 to 0.000494222
Heightened Def Con from 0.000494223 to 0.000494224
Heightened Def Con from 0.000494224 to 0.000494224
Heightened Def Con from 0.000494224 to 0.000494224
Heightened Def Con from 0.000494224 +to 0.000494224
Heightened Def Con from 0.000494224 to 0.000494224
Heightened Def Con from 0.000494224 to 0.000494224
Heightened Def Con from 0.000494225 to 0.000494226
Heightened Def Con from 0.000494226 to 0.000494226
Heightened Def Con from 0.000494226 +to 0.000494228
Heightened Def Con from 0.000494228 to 0.000494229
Heightened Def Con from 0.000494229 to 0.00049423
Heightened Def Con from 0.000494231 to 0.000494232
Heightened Def Con from 0.000494232 to 0.000494233
Heightened Def Con from 0.000494233 to 0.000494234
Heightened Def Con from 0.000494234 to 0.000494235
Heightened Def Con from 0.000494239 +to 0.00049424
Heightened Def Con from 0.00049424 to 0.00049424
Heightened Def Con from 0.00049424 to 0.000494241
Heightened Def Con from 0.000494241 to 0.000494241
Heightened Def Con from 0.000494242 ++to 0.000494243
Heightened Def Con from 0.000494243 +to 0.000494243
Heightened Def Con from 0.000494243 +to 0.000494243
Heightened Def Con from 0.000494243 to 0.000494244
Heightened Def Con from 0.000494244 to 0.000494244
Heightened Def Con from 0.000494244 to 0.000494246
Heightened Def Con from 0.000494246 to 0.000494247
Heightened Def Con from 0.000494247 ++++to 0.000494248
Heightened Def Con from 0.00049425 to 0.000494251
Heightened Def Con from 0.000494268 to 0.000494268
Heightened Def Con from 0.000494268 to 0.000494269
Heightened Def Con from 0.000494269 to 0.000494269
Heightened Def Con from 0.000494271 ++to 0.000494272
Heightened Def Con from 0.000494272 to 0.000494272
Heightened Def Con from 0.000494272 to 0.000494273
Heightened Def Con from 0.000494273 +to 0.000494274
Heightened Def Con from 0.000494274 +to 0.000494274
Heightened Def Con from 0.000494274 to 0.000494274
Heightened Def Con from 0.000494275 to 0.000494276
Heightened Def Con from 0.000494282 to 0.000494282
Heightened Def Con from 0.000494282 +to 0.000494283
Heightened Def Con from 0.000494285 +to 0.000494285
Heightened Def Con from 0.000494285 to 0.000494286
Heightened Def Con from 0.000494286 to 0.000494287
Heightened Def Con from 0.000494293 +to 0.000494293
Heightened Def Con from 0.000494293 to 0.000494295
Heightened Def Con from 0.000494301 +to 0.000494302
Heightened Def Con from 0.000494302 to 0.000494302
Heightened Def Con from 0.000494303 to 0.000494304
Heightened Def Con from 0.000494304 to 0.000494305
Heightened Def Con from 0.000494305 to 0.000494305
Heightened Def Con from 0.000494305 to 0.000494305
Heightened Def Con from 0.000494305 to 0.000494305
Heightened Def Con from 0.000494305 to 0.000494305
Heightened Def Con from 0.000494305 to 0.000494306
Heightened Def Con from 0.000494306 to 0.000494307
Heightened Def Con from 0.000494307 to 0.000494308
Heightened Def Con from 0.000494308 +to 0.000494308
Heightened Def Con from 0.000494308 to 0.000494309
Heightened Def Con from 0.000494309 +to 0.000494309
Heightened Def Con from 0.000494309 to 0.000494309
Heightened Def Con from 0.000494309 to 0.00049431
Heightened Def Con from 0.00049431 +to 0.000494311
Heightened Def Con from 0.000494311 +to 0.000494311
Heightened Def Con from 0.000494311 ++to 0.000494311
Heightened Def Con from 0.000494311 +to 0.000494311
Heightened Def Con from 0.000494311 to 0.000494311
Heightened Def Con from 0.000494311 to 0.000494311
Heightened Def Con from 0.000494311 to 0.000494311
Heightened Def Con from 0.000494311 to 0.000494312
Heightened Def Con from 0.000494312 +to 0.000494312
Heightened Def Con from 0.000494312 to 0.000494312
Heightened Def Con from 0.000494312 +to 0.000494312
Heightened Def Con from 0.000494312 to 0.000494312
Heightened Def Con from 0.000494312 to 0.000494312
Heightened Def Con from 0.000494312 +to 0.000494312
Heightened Def Con from 0.000494312 to 0.000494313
Heightened Def Con from 0.000494313 +to 0.000494313
Heightened Def Con from 0.000494313 +to 0.000494313
Heightened Def Con from 0.000494313 to 0.000494315
Heightened Def Con from 0.000494315 to 0.000494315
Heightened Def Con from 0.000494315 to 0.000494317
Heightened Def Con from 0.000494317 to 0.000494317
Heightened Def Con from 0.000494317 to 0.000494317
Heightened Def Con from 0.000494317 to 0.000494317
Heightened Def Con from 0.000494317 +to 0.000494318
Heightened Def Con from 0.00049432 to 0.000494321
Heightened Def Con from 0.000494324 to 0.000494324
Heightened Def Con from 0.000494324 +to 0.000494324
Heightened Def Con from 0.000494326 to 0.000494326
Heightened Def Con from 0.000494326 to 0.000494327
Heightened Def Con from 0.000494327 to 0.000494327
Heightened Def Con from 0.000494327 to 0.000494327
Heightened Def Con from 0.000494328 to 0.000494328
Heightened Def Con from 0.000494328 to 0.000494328
Heightened Def Con from 0.000494328 +to 0.000494328
Heightened Def Con from 0.000494328 to 0.000494328
Heightened Def Con from 0.000494328 +to 0.000494329
Heightened Def Con from 0.000494329 to 0.00049433
Heightened Def Con from 0.000494334 to 0.000494334
Heightened Def Con from 0.000494334 +to 0.000494335
Heightened Def Con from 0.000494335 to 0.000494335
Heightened Def Con from 0.000494335 +to 0.000494335
Heightened Def Con from 0.000494335 ++to 0.000494335
Heightened Def Con from 0.000494335 to 0.000494337
Heightened Def Con from 0.000494337 to 0.000494338
Heightened Def Con from 0.000494353 +to 0.000494353
Heightened Def Con from 0.000494353 to 0.000494354
Heightened Def Con from 0.000494356 to 0.000494357
Heightened Def Con from 0.00049436 to 0.000494361
Heightened Def Con from 0.000494361 to 0.000494361
Heightened Def Con from 0.000494361 +to 0.000494361
Heightened Def Con from 0.000494361 to 0.000494361
Heightened Def Con from 0.000494361 to 0.000494362
Heightened Def Con from 0.000494362 +to 0.000494362
Heightened Def Con from 0.000494362 to 0.000494362
Heightened Def Con from 0.000494362 +to 0.000494362
Heightened Def Con from 0.000494362 to 0.000494362
Heightened Def Con from 0.000494362 +to 0.000494362
Heightened Def Con from 0.000494363 to 0.000494363
Heightened Def Con from 0.000494363 to 0.000494363
Heightened Def Con from 0.000494363 +to 0.000494363
Heightened Def Con from 0.000494363 ++to 0.000494363
Heightened Def Con from 0.000494363 to 0.000494364
Heightened Def Con from 0.000494364 to 0.000494365
Heightened Def Con from 0.000494371 to 0.000494372
Heightened Def Con from 0.000494372 to 0.000494372
Heightened Def Con from 0.000494373 +to 0.000494374
Heightened Def Con from 0.000494382 to 0.000494383
Heightened Def Con from 0.000494383 +to 0.000494384
Heightened Def Con from 0.000494384 ++to 0.000494385
Heightened Def Con from 0.000494391 to 0.000494392
Heightened Def Con from 0.000494394 to 0.000494395
Heightened Def Con from 0.000494397 to 0.000494397
Heightened Def Con from 0.000494397 to 0.000494397
Heightened Def Con from 0.000494397 to 0.000494398
Heightened Def Con from 0.000494398 +to 0.000494398
Heightened Def Con from 0.000494398 to 0.000494398
Heightened Def Con from 0.000494398 to 0.000494399
Heightened Def Con from 0.0004944 +to 0.000494401
Heightened Def Con from 0.000494428 to 0.00049443
Heightened Def Con from 0.000494437 to 0.000494437
Heightened Def Con from 0.000494438 to 0.000494439
Heightened Def Con from 0.000494441 +to 0.000494441
Heightened Def Con from 0.000494441 to 0.000494443
Heightened Def Con from 0.000494443 to 0.000494444
Heightened Def Con from 0.000494444 to 0.000494445
Heightened Def Con from 0.000494459 to 0.000494459
Heightened Def Con from 0.000494459 to 0.00049446
Heightened Def Con from 0.00049446 to 0.000494461
Heightened Def Con from 0.000494462 to 0.000494462
Heightened Def Con from 0.000494462 to 0.000494464
Heightened Def Con from 0.000494464 to 0.000494465
Heightened Def Con from 0.000494467 +to 0.000494467
Heightened Def Con from 0.000494467 to 0.000494468
Heightened Def Con from 0.000494468 +to 0.000494468
Heightened Def Con from 0.000494468 to 0.000494468
Heightened Def Con from 0.000494468 +to 0.000494468
Heightened Def Con from 0.000494469 to 0.00049447
Heightened Def Con from 0.000494476 +to 0.000494477
Heightened Def Con from 0.000494491 to 0.000494492
Heightened Def Con from 0.000494842 +to 0.000494843
Heightened Def Con from 0.000494849 to 0.000494849
Heightened Def Con from 0.000494849 to 0.000494849
Heightened Def Con from 0.000494849 +to 0.00049485
Heightened Def Con from 0.00049485 to 0.000494851
Heightened Def Con from 0.000494851 to 0.000494852
Heightened Def Con from 0.000494854 to 0.000494854
Heightened Def Con from 0.000494855 to 0.000494856
Heightened Def Con from 0.000494858 +to 0.000494859
Heightened Def Con from 0.000494931 to 0.000494932
Heightened Def Con from 0.000494932 +to 0.000494933
Heightened Def Con from 0.000494935 to 0.000494936
Heightened Def Con from 0.000494936 to 0.000494937
Heightened Def Con from 0.000494937 +to 0.000494937
Heightened Def Con from 0.000494937 +to 0.000494937
Heightened Def Con from 0.000494937 to 0.000494939
Heightened Def Con from 0.000494939 to 0.00049494
Heightened Def Con from 0.000494942 +to 0.000494942
Heightened Def Con from 0.000494942 +to 0.000494943
Heightened Def Con from 0.000494945 ++to 0.000494945
Heightened Def Con from 0.000494945 ++to 0.000494946
Heightened Def Con from 0.000494946 +to 0.000494946
Heightened Def Con from 0.000494946 to 0.000494946
Heightened Def Con from 0.000494948 to 0.000494948
Heightened Def Con from 0.000494948 to 0.000494949
Heightened Def Con from 0.000494949 to 0.00049495
Heightened Def Con from 0.00049495 to 0.000494951
Heightened Def Con from 0.000494951 to 0.000494951
Heightened Def Con from 0.000494951 to 0.000494952
Heightened Def Con from 0.000494953 to 0.000494953
Heightened Def Con from 0.000494953 +to 0.000494953
Heightened Def Con from 0.000494954 ++to 0.000494955
Heightened Def Con from 0.000494955 +to 0.000494955
Heightened Def Con from 0.000494955 to 0.000494955
Heightened Def Con from 0.000494955 +to 0.000494956
Heightened Def Con from 0.000494956 +to 0.000494957
Heightened Def Con from 0.000494957 to 0.000494958
Heightened Def Con from 0.000494958 to 0.000494958
Heightened Def Con from 0.000494958 to 0.000494959
Heightened Def Con from 0.000494959 +to 0.00049496
Heightened Def Con from 0.00049496 to 0.00049496
Heightened Def Con from 0.00049496 ++to 0.000494961
Heightened Def Con from 0.000494961 to 0.000494963
Heightened Def Con from 0.000494964 to 0.000494964
Heightened Def Con from 0.000494964 +to 0.000494965
Heightened Def Con from 0.000494969 +to 0.000494969
Heightened Def Con from 0.000494969 +to 0.00049497
Heightened Def Con from 0.000494973 +to 0.000494974
Heightened Def Con from 0.00049498 to 0.000494981
Heightened Def Con from 0.000494981 to 0.000494981
Heightened Def Con from 0.000494992 to 0.000494992
Heightened Def Con from 0.000494992 ++++to 0.000494993
Heightened Def Con from 0.000494994 to 0.000494994
Heightened Def Con from 0.000495002 +to 0.000495002
Heightened Def Con from 0.000495002 to 0.000495003
Heightened Def Con from 0.000495003 to 0.000495003
Heightened Def Con from 0.000495003 to 0.000495003
Heightened Def Con from 0.000495003 to 0.000495003
Heightened Def Con from 0.000495003 +to 0.000495003
Heightened Def Con from 0.000495003 +++to 0.000495003
Heightened Def Con from 0.000495003 to 0.000495003
Heightened Def Con from 0.000495003 to 0.000495003
Heightened Def Con from 0.000495003 to 0.000495005
Heightened Def Con from 0.000495007 to 0.000495007
Heightened Def Con from 0.000495007 to 0.000495007
Heightened Def Con from 0.000495007 +to 0.000495008
Heightened Def Con from 0.000495008 to 0.000495008
Heightened Def Con from 0.000495008 to 0.00049501
Heightened Def Con from 0.00049501 to 0.00049501
Heightened Def Con from 0.00049501 to 0.00049501
Heightened Def Con from 0.00049501 to 0.000495011
Heightened Def Con from 0.000495011 +to 0.000495013
Heightened Def Con from 0.000495014 +to 0.000495014
Heightened Def Con from 0.000495014 +to 0.000495015
Heightened Def Con from 0.000495015 +++to 0.000495016
Heightened Def Con from 0.000495016 to 0.000495017
Heightened Def Con from 0.000495017 to 0.000495017
Heightened Def Con from 0.000495017 to 0.000495017
Heightened Def Con from 0.000495017 +to 0.000495017
Heightened Def Con from 0.000495017 to 0.000495017
Heightened Def Con from 0.000495017 to 0.000495017
Heightened Def Con from 0.000495017 to 0.000495017
Heightened Def Con from 0.000495017 to 0.000495017
Heightened Def Con from 0.000495017 ++to 0.000495018
Heightened Def Con from 0.000495018 to 0.000495019
Heightened Def Con from 0.000495019 to 0.00049502
Heightened Def Con from 0.000495028 to 0.000495029
Heightened Def Con from 0.000495029 to 0.000495029
Heightened Def Con from 0.000495029 to 0.00049503
Heightened Def Con from 0.00049503 +to 0.000495032
Heightened Def Con from 0.000495038 +to 0.000495039
Heightened Def Con from 0.000495042 +to 0.000495042
Heightened Def Con from 0.000495042 to 0.000495043
Heightened Def Con from 0.000495043 to 0.000495044
Heightened Def Con from 0.000495047 ++to 0.000495048
Heightened Def Con from 0.000495048 to 0.000495049
Heightened Def Con from 0.000495049 to 0.00049505
Heightened Def Con from 0.00049505 to 0.000495051
Heightened Def Con from 0.000495058 +to 0.000495058
Heightened Def Con from 0.000495058 to 0.000495059
Heightened Def Con from 0.000495062 to 0.000495063
Heightened Def Con from 0.000495063 +to 0.000495063
Heightened Def Con from 0.000495063 to 0.000495064
Heightened Def Con from 0.000495064 to 0.000495065
Heightened Def Con from 0.000495065 +to 0.000495065
Heightened Def Con from 0.000495065 to 0.000495065
Heightened Def Con from 0.000495065 +to 0.000495065
Heightened Def Con from 0.000495065 +to 0.000495066
Heightened Def Con from 0.000495068 to 0.000495069
Heightened Def Con from 0.000495069 +to 0.00049507
Heightened Def Con from 0.00049507 to 0.000495071
Heightened Def Con from 0.000495071 to 0.000495071
Heightened Def Con from 0.000495071 to 0.000495071
Heightened Def Con from 0.000495071 to 0.000495071
Heightened Def Con from 0.000495071 to 0.000495072
Heightened Def Con from 0.000495072 to 0.000495072
Heightened Def Con from 0.000495072 +to 0.000495073
Heightened Def Con from 0.000495082 ++to 0.000495083
Heightened Def Con from 0.000495083 to 0.000495084
Heightened Def Con from 0.000495084 to 0.000495084
Heightened Def Con from 0.000495084 to 0.000495084
Heightened Def Con from 0.000495084 +to 0.000495084
Heightened Def Con from 0.000495084 to 0.000495086
Heightened Def Con from 0.000495087 to 0.000495088
Heightened Def Con from 0.000495088 to 0.000495088
Heightened Def Con from 0.000495088 +to 0.000495089
Heightened Def Con from 0.000495089 to 0.000495089
Heightened Def Con from 0.000495089 to 0.000495089
Heightened Def Con from 0.000495089 +to 0.00049509
Heightened Def Con from 0.000495092 to 0.000495092
Heightened Def Con from 0.000495092 +to 0.000495093
Heightened Def Con from 0.000495093 to 0.000495094
Heightened Def Con from 0.000495094 +to 0.000495094
Heightened Def Con from 0.000495094 to 0.000495094
Heightened Def Con from 0.000495094 to 0.000495096
Heightened Def Con from 0.000495096 to 0.000495097
Heightened Def Con from 0.0004951 +++to 0.000495101
Heightened Def Con from 0.000495101 to 0.000495103
Heightened Def Con from 0.000495103 +to 0.000495106
Heightened Def Con from 0.000495106 to 0.000495106
Heightened Def Con from 0.000495106 to 0.000495108
Heightened Def Con from 0.000495108 to 0.000495108
Heightened Def Con from 0.000495108 to 0.000495108
Heightened Def Con from 0.000495108 +to 0.000495108
Heightened Def Con from 0.000495108 +to 0.00049511
Heightened Def Con from 0.00049511 to 0.00049511
Heightened Def Con from 0.00049511 to 0.00049511
Heightened Def Con from 0.00049511 ++to 0.000495111
Heightened Def Con from 0.000495111 to 0.000495111
Heightened Def Con from 0.000495111 to 0.000495111
Heightened Def Con from 0.000495111 to 0.000495111
Heightened Def Con from 0.000495111 +to 0.000495112
Heightened Def Con from 0.000495112 to 0.000495112
Heightened Def Con from 0.000495112 to 0.000495112
Heightened Def Con from 0.000495112 to 0.000495112
Heightened Def Con from 0.000495112 to 0.000495112
Heightened Def Con from 0.000495112 to 0.000495112
Heightened Def Con from 0.000495112 to 0.000495113
Heightened Def Con from 0.000495113 to 0.000495113
Heightened Def Con from 0.000495113 to 0.000495113
Heightened Def Con from 0.000495113 to 0.000495113
Heightened Def Con from 0.000495113 to 0.000495113
Heightened Def Con from 0.000495113 to 0.000495113
Heightened Def Con from 0.000495113 +to 0.000495115
Heightened Def Con from 0.000495115 to 0.000495116
Heightened Def Con from 0.000495116 to 0.000495117
Heightened Def Con from 0.000495117 to 0.000495119
Heightened Def Con from 0.000495119 to 0.00049512
Heightened Def Con from 0.00049512 to 0.00049512
Heightened Def Con from 0.00049512 to 0.00049512
Heightened Def Con from 0.00049512 to 0.00049512
Heightened Def Con from 0.00049512 to 0.00049512
Heightened Def Con from 0.00049512 to 0.00049512
Heightened Def Con from 0.00049512 to 0.00049512
Heightened Def Con from 0.00049512 +to 0.00049512
Heightened Def Con from 0.00049512 to 0.000495123
Heightened Def Con from 0.000495123 to 0.000495125
Heightened Def Con from 0.000495125 +to 0.000495127
Heightened Def Con from 0.000495127 to 0.000495128
Heightened Def Con from 0.000495128 to 0.000495128
Heightened Def Con from 0.000495128 to 0.000495128
Heightened Def Con from 0.000495128 to 0.000495128
Heightened Def Con from 0.000495128 to 0.000495129
Heightened Def Con from 0.000495129 +to 0.00049513
Heightened Def Con from 0.00049513 to 0.000495132
Heightened Def Con from 0.000495132 to 0.000495133
Heightened Def Con from 0.000495133 to 0.000495133
Heightened Def Con from 0.000495133 to 0.000495133
Heightened Def Con from 0.000495133 to 0.000495133
Heightened Def Con from 0.000495133 to 0.000495133
Heightened Def Con from 0.000495133 to 0.000495135
Heightened Def Con from 0.000495135 ++to 0.000495139
Heightened Def Con from 0.000495139 to 0.00049514

Date: Sat May 18 21:39:50 2019
Total elapsed time: 24.626 seconds.

tnom = 27
temp = 27
method = modified trap
totiter = 3877915
traniter = 3877870
tranpoints = 435222
accept = 140818
rejected = 319515
matrix size = 45
fillins = 18
solver = Normal
Matrix Compiler1: 3.54 KB object code size  1.4/1.0/[0.7]
Matrix Compiler2: off  [0.9]/1.2/1.0

